! Generated by qgis2fds 1.0.2 on QGIS 3.28.8-Firenze
! QGIS file: tests/test_golden_gate_local/golden_gate_local.qgs
! Date: Fri, 21 Jul 2023, 15:44:22

Selected UTM CRS: WGS 84 / UTM zone 10N
Domain origin: 545409.6E 4187342.0N
  <http://www.openstreetmap.org/?mlat=37.83237143343951&mlon=-122.48396425386197&zoom=12>
Domain extent: 544771.5-545657.3E 4186832.4-4187488.1N

Desired resolution: 30.0m
DEM layer: US_DEM2016_local
Landuse layer: US_200F13_20_local
Landuse type file: ...ication/tests/test_golden_gate_local\Landfire.gov_F13.csv
Fire layer: fire
FDS DEVCs layer: FIXME
Wind file: ...gisfds.verification/tests/test_golden_gate_local\wind.csv

&HEAD CHID='golden_gate_local_obst' TITLE='Description of golden_gate_local_obst' /

MISC LEVEL_SET_MODE parameter
 1: Wind not affected by the terrain. No fire.
 2: Wind field established over the terrain, then frozen. No fire.
 3: Wind field following the terrain, no fire.
 4: Wind and fire fully-coupled.

&MISC ORIGIN_LAT=37.8323714
      ORIGIN_LON=-122.4839643
      NORTH_BEARING=0.
      TERRAIN_IMAGE='golden_gate_local_obst_tex.png'
      LEVEL_SET_MODE=1 
      THICKEN_OBSTRUCTIONS=T /

&TIME T_END=0. /

Example REAC, used when LEVEL_SET_MODE=4
_REAC ID='Wood' SOOT_YIELD=0.005 O=2.5 C=3.4 H=6.2
      HEAT_OF_COMBUSTION=17700. /

Domain and its boundary conditions
2 · 2 meshes of 441.9m · 326.9m · 317.5m size and 43648 cells each
&MULT ID='Meshes'
      DX=441.91 I_LOWER=0 I_UPPER=1
      DY=326.85 J_LOWER=0 J_UPPER=1 /
&MESH IJK=44,32,31 MULT_ID='Meshes'
      XB=-637.13,-195.22,-508.58,-181.73,12.30,329.81 /
&VENT ID='Domain BC XMIN' DB='XMIN' SURF_ID='OPEN' /
&VENT ID='Domain BC XMAX' DB='XMAX' SURF_ID='OPEN' /
&VENT ID='Domain BC YMIN' DB='YMIN' SURF_ID='OPEN' /
&VENT ID='Domain BC YMAX' DB='YMAX' SURF_ID='OPEN' /
&VENT ID='Domain BC ZMAX' DB='ZMAX' SURF_ID='OPEN' /

Wind rose at domain origin
&DEVC ID='Origin_UV' XYZ=0.,0.,329.71 QUANTITY='U-VELOCITY' /
&DEVC ID='Origin_VV' XYZ=0.,0.,329.71 QUANTITY='V-VELOCITY' /
&DEVC ID='Origin_WV' XYZ=0.,0.,329.71 QUANTITY='W-VELOCITY' /

Landuse boundary conditions
&SURF ID='NA' RGB=255,255,255 /
&SURF ID='A01' RGB=255,254,212 VEG_LSET_FUEL_INDEX=1 /
&SURF ID='A02' RGB=255,253,102 VEG_LSET_FUEL_INDEX=2 /
&SURF ID='A03' RGB=236,212,99 VEG_LSET_FUEL_INDEX=3 /
&SURF ID='A04' RGB=254,193,119 VEG_LSET_FUEL_INDEX=4 /
&SURF ID='A05' RGB=249,197,92 VEG_LSET_FUEL_INDEX=5 /
&SURF ID='A06' RGB=217,196,152 VEG_LSET_FUEL_INDEX=6 /
&SURF ID='A07' RGB=170,155,127 VEG_LSET_FUEL_INDEX=7 /
&SURF ID='A08' RGB=229,253,214 VEG_LSET_FUEL_INDEX=8 /
&SURF ID='A09' RGB=162,191,90 VEG_LSET_FUEL_INDEX=9 /
&SURF ID='A10' RGB=114,154,85 VEG_LSET_FUEL_INDEX=10 /
&SURF ID='A11' RGB=235,212,253 VEG_LSET_FUEL_INDEX=11 /
&SURF ID='A12' RGB=163,177,243 VEG_LSET_FUEL_INDEX=12 /
&SURF ID='A13' RGB=0,0,0 VEG_LSET_FUEL_INDEX=13 /
&SURF ID='Urban' RGB=186,119,80 /
&SURF ID='Snow-Ice' RGB=234,234,234 /
&SURF ID='Agricolture' RGB=253,242,242 /
&SURF ID='Water' RGB=137,183,221 /
&SURF ID='Barren' RGB=133,153,156 /
&SURF ID='Ignition' VEG_LSET_IGNITE_TIME=0. COLOR='RED' /
&SURF ID='Burned' RGB=20,20,20 /

Output quantities
&SLCF AGL_SLICE=5. QUANTITY='LEVEL SET VALUE' /
&SLCF AGL_SLICE=5. QUANTITY='TEMPERATURE' VECTOR=T /
&SLCF PBX=0.00 QUANTITY='TEMPERATURE' VECTOR=T /
&SLCF PBY=0.00 QUANTITY='TEMPERATURE' VECTOR=T /

Wind
&WIND SPEED=1., RAMP_SPEED_T='ws', RAMP_DIRECTION_T='wd' /
&RAMP ID='ws', T=0.0, F=2.0 /
&RAMP ID='ws', T=180.0, F=5.0 /
&RAMP ID='ws', T=360.0, F=10.0 /
&RAMP ID='wd', T=0.0, F=45.0 /
&RAMP ID='wd', T=180.0, F=90.0 /
&RAMP ID='wd', T=360.0, F=135.0 /

Terrain (660 OBSTs)
&OBST XB=-638.13,-608.60,116.32,146.12,12.30,208.47 SURF_ID='A02' /
&OBST XB=-608.60,-579.07,116.32,146.12,12.30,203.27 SURF_ID='A02' /
&OBST XB=-579.07,-549.55,116.32,146.12,12.30,202.17 SURF_ID='A02' /
&OBST XB=-549.55,-520.02,116.32,146.12,12.30,208.11 SURF_ID='A02' /
&OBST XB=-520.02,-490.49,116.32,146.12,12.30,211.99 SURF_ID='Barren' /
&OBST XB=-490.49,-460.96,116.32,146.12,12.30,204.99 SURF_ID='Barren' /
&OBST XB=-460.96,-431.44,116.32,146.12,12.30,198.23 SURF_ID='A02' /
&OBST XB=-431.44,-401.91,116.32,146.12,12.30,199.48 SURF_ID='A02' /
&OBST XB=-401.91,-372.38,116.32,146.12,12.30,208.85 SURF_ID='A05' /
&OBST XB=-372.38,-342.85,116.32,146.12,12.30,223.90 SURF_ID='A04' /
&OBST XB=-342.85,-313.33,116.32,146.12,12.30,229.81 SURF_ID='A05' /
&OBST XB=-313.33,-283.80,116.32,146.12,12.30,223.48 SURF_ID='A05' /
&OBST XB=-283.80,-254.27,116.32,146.12,12.30,210.71 SURF_ID='A05' /
&OBST XB=-254.27,-224.75,116.32,146.12,12.30,197.02 SURF_ID='A05' /
&OBST XB=-224.75,-195.22,116.32,146.12,12.30,182.82 SURF_ID='A05' /
&OBST XB=-195.22,-165.69,116.32,146.12,12.30,167.18 SURF_ID='A05' /
&OBST XB=-165.69,-136.16,116.32,146.12,12.30,153.40 SURF_ID='A05' /
&OBST XB=-136.16,-106.64,116.32,146.12,12.30,142.45 SURF_ID='A05' /
&OBST XB=-106.64,-77.11,116.32,146.12,12.30,131.92 SURF_ID='A08' /
&OBST XB=-77.11,-47.58,116.32,146.12,12.30,120.31 SURF_ID='A05' /
&OBST XB=-47.58,-18.05,116.32,146.12,12.30,105.97 SURF_ID='A05' /
&OBST XB=-18.05,11.47,116.32,146.12,12.30,95.53 SURF_ID='A05' /
&OBST XB=11.47,41.00,116.32,146.12,12.30,86.76 SURF_ID='Urban' /
&OBST XB=41.00,70.53,116.32,146.12,12.30,82.76 SURF_ID='Urban' /
&OBST XB=70.53,100.06,116.32,146.12,12.30,80.35 SURF_ID='Urban' /
&OBST XB=100.06,129.58,116.32,146.12,12.30,77.06 SURF_ID='Urban' /
&OBST XB=129.58,159.11,116.32,146.12,12.30,69.67 SURF_ID='Urban' /
&OBST XB=159.11,188.64,116.32,146.12,12.30,65.16 SURF_ID='A08' /
&OBST XB=188.64,218.17,116.32,146.12,12.30,67.78 SURF_ID='A08' /
&OBST XB=218.17,247.69,116.32,146.12,12.30,67.64 SURF_ID='A08' /
&OBST XB=-638.13,-608.60,86.51,116.32,12.30,193.45 SURF_ID='A02' /
&OBST XB=-608.60,-579.07,86.51,116.32,12.30,184.31 SURF_ID='A02' /
&OBST XB=-579.07,-549.55,86.51,116.32,12.30,184.73 SURF_ID='A02' /
&OBST XB=-549.55,-520.02,86.51,116.32,12.30,196.23 SURF_ID='A02' /
&OBST XB=-520.02,-490.49,86.51,116.32,12.30,197.81 SURF_ID='A02' /
&OBST XB=-490.49,-460.96,86.51,116.32,12.30,188.21 SURF_ID='A02' /
&OBST XB=-460.96,-431.44,86.51,116.32,12.30,181.10 SURF_ID='A02' /
&OBST XB=-431.44,-401.91,86.51,116.32,12.30,184.74 SURF_ID='A02' /
&OBST XB=-401.91,-372.38,86.51,116.32,12.30,198.38 SURF_ID='A02' /
&OBST XB=-372.38,-342.85,86.51,116.32,12.30,211.60 SURF_ID='A04' /
&OBST XB=-342.85,-313.33,86.51,116.32,12.30,220.32 SURF_ID='A05' /
&OBST XB=-313.33,-283.80,86.51,116.32,12.30,223.60 SURF_ID='A05' /
&OBST XB=-283.80,-254.27,86.51,116.32,12.30,217.96 SURF_ID='A05' /
&OBST XB=-254.27,-224.75,86.51,116.32,12.30,206.80 SURF_ID='A05' /
&OBST XB=-224.75,-195.22,86.51,116.32,12.30,191.92 SURF_ID='A05' /
&OBST XB=-195.22,-165.69,86.51,116.32,12.30,175.35 SURF_ID='A05' /
&OBST XB=-165.69,-136.16,86.51,116.32,12.30,159.70 SURF_ID='A05' /
&OBST XB=-136.16,-106.64,86.51,116.32,12.30,149.34 SURF_ID='A05' /
&OBST XB=-106.64,-77.11,86.51,116.32,12.30,137.12 SURF_ID='A01' /
&OBST XB=-77.11,-47.58,86.51,116.32,12.30,125.20 SURF_ID='A05' /
&OBST XB=-47.58,-18.05,86.51,116.32,12.30,114.32 SURF_ID='A05' /
&OBST XB=-18.05,11.47,86.51,116.32,12.30,102.94 SURF_ID='A05' /
&OBST XB=11.47,41.00,86.51,116.32,12.30,91.92 SURF_ID='Urban' /
&OBST XB=41.00,70.53,86.51,116.32,12.30,86.71 SURF_ID='Urban' /
&OBST XB=70.53,100.06,86.51,116.32,12.30,82.42 SURF_ID='Urban' /
&OBST XB=100.06,129.58,86.51,116.32,12.30,79.68 SURF_ID='Urban' /
&OBST XB=129.58,159.11,86.51,116.32,12.30,75.22 SURF_ID='Urban' /
&OBST XB=159.11,188.64,86.51,116.32,12.30,75.25 SURF_ID='Urban' /
&OBST XB=188.64,218.17,86.51,116.32,12.30,76.63 SURF_ID='Urban' /
&OBST XB=218.17,247.69,86.51,116.32,12.30,75.70 SURF_ID='Urban' /
&OBST XB=-638.13,-608.60,56.71,86.51,12.30,180.02 SURF_ID='A02' /
&OBST XB=-608.60,-579.07,56.71,86.51,12.30,167.13 SURF_ID='A02' /
&OBST XB=-579.07,-549.55,56.71,86.51,12.30,170.51 SURF_ID='A02' /
&OBST XB=-549.55,-520.02,56.71,86.51,12.30,184.65 SURF_ID='A02' /
&OBST XB=-520.02,-490.49,56.71,86.51,12.30,181.57 SURF_ID='A02' /
&OBST XB=-490.49,-460.96,56.71,86.51,12.30,171.22 SURF_ID='A02' /
&OBST XB=-460.96,-431.44,56.71,86.51,12.30,164.69 SURF_ID='A02' /
&OBST XB=-431.44,-401.91,56.71,86.51,12.30,172.97 SURF_ID='A02' /
&OBST XB=-401.91,-372.38,56.71,86.51,12.30,185.88 SURF_ID='A02' /
&OBST XB=-372.38,-342.85,56.71,86.51,12.30,194.73 SURF_ID='A02' /
&OBST XB=-342.85,-313.33,56.71,86.51,12.30,209.39 SURF_ID='A02' /
&OBST XB=-313.33,-283.80,56.71,86.51,12.30,219.79 SURF_ID='A04' /
&OBST XB=-283.80,-254.27,56.71,86.51,12.30,222.62 SURF_ID='A05' /
&OBST XB=-254.27,-224.75,56.71,86.51,12.30,216.44 SURF_ID='A05' /
&OBST XB=-224.75,-195.22,56.71,86.51,12.30,202.81 SURF_ID='A05' /
&OBST XB=-195.22,-165.69,56.71,86.51,12.30,185.94 SURF_ID='A05' /
&OBST XB=-165.69,-136.16,56.71,86.51,12.30,170.44 SURF_ID='A05' /
&OBST XB=-136.16,-106.64,56.71,86.51,12.30,157.59 SURF_ID='A05' /
&OBST XB=-106.64,-77.11,56.71,86.51,12.30,145.72 SURF_ID='A05' /
&OBST XB=-77.11,-47.58,56.71,86.51,12.30,133.04 SURF_ID='A05' /
&OBST XB=-47.58,-18.05,56.71,86.51,12.30,120.04 SURF_ID='A05' /
&OBST XB=-18.05,11.47,56.71,86.51,12.30,107.67 SURF_ID='A05' /
&OBST XB=11.47,41.00,56.71,86.51,12.30,96.23 SURF_ID='Urban' /
&OBST XB=41.00,70.53,56.71,86.51,12.30,90.21 SURF_ID='A05' /
&OBST XB=70.53,100.06,56.71,86.51,12.30,84.08 SURF_ID='Urban' /
&OBST XB=100.06,129.58,56.71,86.51,12.30,81.19 SURF_ID='Urban' /
&OBST XB=129.58,159.11,56.71,86.51,12.30,78.49 SURF_ID='Urban' /
&OBST XB=159.11,188.64,56.71,86.51,12.30,77.07 SURF_ID='Urban' /
&OBST XB=188.64,218.17,56.71,86.51,12.30,76.87 SURF_ID='Urban' /
&OBST XB=218.17,247.69,56.71,86.51,12.30,76.02 SURF_ID='Urban' /
&OBST XB=-638.13,-608.60,26.90,56.71,12.30,169.65 SURF_ID='A02' /
&OBST XB=-608.60,-579.07,26.90,56.71,12.30,158.67 SURF_ID='Urban' /
&OBST XB=-579.07,-549.55,26.90,56.71,12.30,161.06 SURF_ID='A05' /
&OBST XB=-549.55,-520.02,26.90,56.71,12.30,167.66 SURF_ID='A02' /
&OBST XB=-520.02,-490.49,26.90,56.71,12.30,165.39 SURF_ID='A02' /
&OBST XB=-490.49,-460.96,26.90,56.71,12.30,156.65 SURF_ID='A05' /
&OBST XB=-460.96,-431.44,26.90,56.71,12.30,152.54 SURF_ID='A05' /
&OBST XB=-431.44,-401.91,26.90,56.71,12.30,159.70 SURF_ID='A05' /
&OBST XB=-401.91,-372.38,26.90,56.71,12.30,169.30 SURF_ID='A05' /
&OBST XB=-372.38,-342.85,26.90,56.71,12.30,183.50 SURF_ID='A02' /
&OBST XB=-342.85,-313.33,26.90,56.71,12.30,198.19 SURF_ID='A02' /
&OBST XB=-313.33,-283.80,26.90,56.71,12.30,210.69 SURF_ID='A02' /
&OBST XB=-283.80,-254.27,26.90,56.71,12.30,220.23 SURF_ID='A02' /
&OBST XB=-254.27,-224.75,26.90,56.71,12.30,220.57 SURF_ID='A05' /
&OBST XB=-224.75,-195.22,26.90,56.71,12.30,210.87 SURF_ID='A05' /
&OBST XB=-195.22,-165.69,26.90,56.71,12.30,198.08 SURF_ID='A05' /
&OBST XB=-165.69,-136.16,26.90,56.71,12.30,183.79 SURF_ID='A05' /
&OBST XB=-136.16,-106.64,26.90,56.71,12.30,170.63 SURF_ID='A05' /
&OBST XB=-106.64,-77.11,26.90,56.71,12.30,155.51 SURF_ID='A05' /
&OBST XB=-77.11,-47.58,26.90,56.71,12.30,139.42 SURF_ID='A01' /
&OBST XB=-47.58,-18.05,26.90,56.71,12.30,124.76 SURF_ID='A05' /
&OBST XB=-18.05,11.47,26.90,56.71,12.30,112.72 SURF_ID='A01' /
&OBST XB=11.47,41.00,26.90,56.71,12.30,101.37 SURF_ID='A01' /
&OBST XB=41.00,70.53,26.90,56.71,12.30,96.28 SURF_ID='Urban' /
&OBST XB=70.53,100.06,26.90,56.71,12.30,92.77 SURF_ID='Urban' /
&OBST XB=100.06,129.58,26.90,56.71,12.30,85.12 SURF_ID='A05' /
&OBST XB=129.58,159.11,26.90,56.71,12.30,77.93 SURF_ID='Urban' /
&OBST XB=159.11,188.64,26.90,56.71,12.30,75.68 SURF_ID='Urban' /
&OBST XB=188.64,218.17,26.90,56.71,12.30,75.82 SURF_ID='Urban' /
&OBST XB=218.17,247.69,26.90,56.71,12.30,75.47 SURF_ID='Urban' /
&OBST XB=-638.13,-608.60,-2.90,26.90,12.30,162.39 SURF_ID='Urban' /
&OBST XB=-608.60,-579.07,-2.90,26.90,12.30,149.39 SURF_ID='A05' /
&OBST XB=-579.07,-549.55,-2.90,26.90,12.30,144.07 SURF_ID='Urban' /
&OBST XB=-549.55,-520.02,-2.90,26.90,12.30,152.51 SURF_ID='Urban' /
&OBST XB=-520.02,-490.49,-2.90,26.90,12.30,150.43 SURF_ID='A05' /
&OBST XB=-490.49,-460.96,-2.90,26.90,12.30,140.18 SURF_ID='Urban' /
&OBST XB=-460.96,-431.44,-2.90,26.90,12.30,134.42 SURF_ID='Urban' /
&OBST XB=-431.44,-401.91,-2.90,26.90,12.30,146.38 SURF_ID='Urban' /
&OBST XB=-401.91,-372.38,-2.90,26.90,12.30,158.85 SURF_ID='Urban' /
&OBST XB=-372.38,-342.85,-2.90,26.90,12.30,170.65 SURF_ID='Urban' /
&OBST XB=-342.85,-313.33,-2.90,26.90,12.30,183.75 SURF_ID='A02' /
&OBST XB=-313.33,-283.80,-2.90,26.90,12.30,197.65 SURF_ID='A02' /
&OBST XB=-283.80,-254.27,-2.90,26.90,12.30,208.24 SURF_ID='A02' /
&OBST XB=-254.27,-224.75,-2.90,26.90,12.30,214.25 SURF_ID='A02' /
&OBST XB=-224.75,-195.22,-2.90,26.90,12.30,215.34 SURF_ID='A05' /
&OBST XB=-195.22,-165.69,-2.90,26.90,12.30,207.69 SURF_ID='A05' /
&OBST XB=-165.69,-136.16,-2.90,26.90,12.30,192.60 SURF_ID='A05' /
&OBST XB=-136.16,-106.64,-2.90,26.90,12.30,176.75 SURF_ID='A05' /
&OBST XB=-106.64,-77.11,-2.90,26.90,12.30,158.65 SURF_ID='A05' /
&OBST XB=-77.11,-47.58,-2.90,26.90,12.30,141.15 SURF_ID='A05' /
&OBST XB=-47.58,-18.05,-2.90,26.90,12.30,124.87 SURF_ID='A05' /
&OBST XB=-18.05,11.47,-2.90,26.90,12.30,116.45 SURF_ID='A05' /
&OBST XB=11.47,41.00,-2.90,26.90,12.30,104.49 SURF_ID='A01' /
&OBST XB=41.00,70.53,-2.90,26.90,12.30,97.85 SURF_ID='Urban' /
&OBST XB=70.53,100.06,-2.90,26.90,12.30,89.44 SURF_ID='A08' /
&OBST XB=100.06,129.58,-2.90,26.90,12.30,82.21 SURF_ID='A08' /
&OBST XB=129.58,159.11,-2.90,26.90,12.30,74.63 SURF_ID='Urban' /
&OBST XB=159.11,188.64,-2.90,26.90,12.30,72.86 SURF_ID='Urban' /
&OBST XB=188.64,218.17,-2.90,26.90,12.30,73.64 SURF_ID='Urban' /
&OBST XB=218.17,247.69,-2.90,26.90,12.30,70.71 SURF_ID='Urban' /
&OBST XB=-638.13,-608.60,-32.71,-2.90,12.30,152.22 SURF_ID='Urban' /
&OBST XB=-608.60,-579.07,-32.71,-2.90,12.30,135.45 SURF_ID='A01' /
&OBST XB=-579.07,-549.55,-32.71,-2.90,12.30,129.82 SURF_ID='A05' /
&OBST XB=-549.55,-520.02,-32.71,-2.90,12.30,139.02 SURF_ID='Urban' /
&OBST XB=-520.02,-490.49,-32.71,-2.90,12.30,134.68 SURF_ID='Urban' /
&OBST XB=-490.49,-460.96,-32.71,-2.90,12.30,121.79 SURF_ID='Urban' /
&OBST XB=-460.96,-431.44,-32.71,-2.90,12.30,120.94 SURF_ID='A05' /
&OBST XB=-431.44,-401.91,-32.71,-2.90,12.30,135.85 SURF_ID='Urban' /
&OBST XB=-401.91,-372.38,-32.71,-2.90,12.30,151.11 SURF_ID='Urban' /
&OBST XB=-372.38,-342.85,-32.71,-2.90,12.30,158.84 SURF_ID='Urban' /
&OBST XB=-342.85,-313.33,-32.71,-2.90,12.30,170.30 SURF_ID='A02' /
&OBST XB=-313.33,-283.80,-32.71,-2.90,12.30,184.86 SURF_ID='A02' /
&OBST XB=-283.80,-254.27,-32.71,-2.90,12.30,195.49 SURF_ID='A02' /
&OBST XB=-254.27,-224.75,-32.71,-2.90,12.30,204.98 SURF_ID='Burned' /
&OBST XB=-224.75,-195.22,-32.71,-2.90,12.30,214.37 SURF_ID='A02' /
&OBST XB=-195.22,-165.69,-32.71,-2.90,12.30,211.45 SURF_ID='A02' /
&OBST XB=-165.69,-136.16,-32.71,-2.90,12.30,194.37 SURF_ID='Ignition' /
&OBST XB=-136.16,-106.64,-32.71,-2.90,12.30,175.12 SURF_ID='A05' /
&OBST XB=-106.64,-77.11,-32.71,-2.90,12.30,155.83 SURF_ID='A05' /
&OBST XB=-77.11,-47.58,-32.71,-2.90,12.30,141.09 SURF_ID='A05' /
&OBST XB=-47.58,-18.05,-32.71,-2.90,12.30,127.38 SURF_ID='A05' /
&OBST XB=-18.05,11.47,-32.71,-2.90,12.30,115.27 SURF_ID='A01' /
&OBST XB=11.47,41.00,-32.71,-2.90,12.30,103.86 SURF_ID='Urban' /
&OBST XB=41.00,70.53,-32.71,-2.90,12.30,95.51 SURF_ID='A08' /
&OBST XB=70.53,100.06,-32.71,-2.90,12.30,84.63 SURF_ID='A12' /
&OBST XB=100.06,129.58,-32.71,-2.90,12.30,75.67 SURF_ID='A12' /
&OBST XB=129.58,159.11,-32.71,-2.90,12.30,70.40 SURF_ID='Urban' /
&OBST XB=159.11,188.64,-32.71,-2.90,12.30,66.59 SURF_ID='A05' /
&OBST XB=188.64,218.17,-32.71,-2.90,12.30,60.44 SURF_ID='A05' /
&OBST XB=218.17,247.69,-32.71,-2.90,12.30,58.19 SURF_ID='Urban' /
&OBST XB=-638.13,-608.60,-62.51,-32.71,12.30,139.64 SURF_ID='A05' /
&OBST XB=-608.60,-579.07,-62.51,-32.71,12.30,121.13 SURF_ID='A05' /
&OBST XB=-579.07,-549.55,-62.51,-32.71,12.30,115.18 SURF_ID='A05' /
&OBST XB=-549.55,-520.02,-62.51,-32.71,12.30,119.71 SURF_ID='A05' /
&OBST XB=-520.02,-490.49,-62.51,-32.71,12.30,117.45 SURF_ID='A01' /
&OBST XB=-490.49,-460.96,-62.51,-32.71,12.30,104.79 SURF_ID='A05' /
&OBST XB=-460.96,-431.44,-62.51,-32.71,12.30,111.91 SURF_ID='A05' /
&OBST XB=-431.44,-401.91,-62.51,-32.71,12.30,128.68 SURF_ID='A05' /
&OBST XB=-401.91,-372.38,-62.51,-32.71,12.30,137.09 SURF_ID='A05' /
&OBST XB=-372.38,-342.85,-62.51,-32.71,12.30,144.75 SURF_ID='A05' /
&OBST XB=-342.85,-313.33,-62.51,-32.71,12.30,160.03 SURF_ID='Ignition' /
&OBST XB=-313.33,-283.80,-62.51,-32.71,12.30,173.06 SURF_ID='Urban' /
&OBST XB=-283.80,-254.27,-62.51,-32.71,12.30,186.73 SURF_ID='Burned' /
&OBST XB=-254.27,-224.75,-62.51,-32.71,12.30,199.61 SURF_ID='Burned' /
&OBST XB=-224.75,-195.22,-62.51,-32.71,12.30,212.34 SURF_ID='Burned' /
&OBST XB=-195.22,-165.69,-62.51,-32.71,12.30,209.47 SURF_ID='A02' /
&OBST XB=-165.69,-136.16,-62.51,-32.71,12.30,192.88 SURF_ID='A02' /
&OBST XB=-136.16,-106.64,-62.51,-32.71,12.30,174.30 SURF_ID='A02' /
&OBST XB=-106.64,-77.11,-62.51,-32.71,12.30,156.37 SURF_ID='A05' /
&OBST XB=-77.11,-47.58,-62.51,-32.71,12.30,142.64 SURF_ID='A05' /
&OBST XB=-47.58,-18.05,-62.51,-32.71,12.30,128.05 SURF_ID='A05' /
&OBST XB=-18.05,11.47,-62.51,-32.71,12.30,113.06 SURF_ID='A05' /
&OBST XB=11.47,41.00,-62.51,-32.71,12.30,103.13 SURF_ID='Urban' /
&OBST XB=41.00,70.53,-62.51,-32.71,12.30,92.39 SURF_ID='A01' /
&OBST XB=70.53,100.06,-62.51,-32.71,12.30,82.53 SURF_ID='A08' /
&OBST XB=100.06,129.58,-62.51,-32.71,12.30,71.89 SURF_ID='A10' /
&OBST XB=129.58,159.11,-62.51,-32.71,12.30,65.83 SURF_ID='A10' /
&OBST XB=159.11,188.64,-62.51,-32.71,12.30,58.70 SURF_ID='A05' /
&OBST XB=188.64,218.17,-62.51,-32.71,12.30,52.24 SURF_ID='A05' /
&OBST XB=218.17,247.69,-62.51,-32.71,12.30,46.72 SURF_ID='Urban' /
&OBST XB=-638.13,-608.60,-92.31,-62.51,12.30,128.61 SURF_ID='A05' /
&OBST XB=-608.60,-579.07,-92.31,-62.51,12.30,109.10 SURF_ID='A05' /
&OBST XB=-579.07,-549.55,-92.31,-62.51,12.30,98.40 SURF_ID='A05' /
&OBST XB=-549.55,-520.02,-92.31,-62.51,12.30,99.94 SURF_ID='A05' /
&OBST XB=-520.02,-490.49,-92.31,-62.51,12.30,98.24 SURF_ID='A05' /
&OBST XB=-490.49,-460.96,-92.31,-62.51,12.30,87.60 SURF_ID='A05' /
&OBST XB=-460.96,-431.44,-92.31,-62.51,12.30,103.26 SURF_ID='A05' /
&OBST XB=-431.44,-401.91,-92.31,-62.51,12.30,115.63 SURF_ID='A05' /
&OBST XB=-401.91,-372.38,-92.31,-62.51,12.30,121.53 SURF_ID='A05' /
&OBST XB=-372.38,-342.85,-92.31,-62.51,12.30,133.27 SURF_ID='Ignition' /
&OBST XB=-342.85,-313.33,-92.31,-62.51,12.30,151.39 SURF_ID='Burned' /
&OBST XB=-313.33,-283.80,-92.31,-62.51,12.30,163.94 SURF_ID='Ignition' /
&OBST XB=-283.80,-254.27,-92.31,-62.51,12.30,179.51 SURF_ID='A02' /
&OBST XB=-254.27,-224.75,-92.31,-62.51,12.30,193.99 SURF_ID='Burned' /
&OBST XB=-224.75,-195.22,-92.31,-62.51,12.30,206.78 SURF_ID='A02' /
&OBST XB=-195.22,-165.69,-92.31,-62.51,12.30,206.45 SURF_ID='A02' /
&OBST XB=-165.69,-136.16,-92.31,-62.51,12.30,193.54 SURF_ID='A02' /
&OBST XB=-136.16,-106.64,-92.31,-62.51,12.30,175.55 SURF_ID='A02' /
&OBST XB=-106.64,-77.11,-92.31,-62.51,12.30,159.63 SURF_ID='A02' /
&OBST XB=-77.11,-47.58,-92.31,-62.51,12.30,144.71 SURF_ID='A02' /
&OBST XB=-47.58,-18.05,-92.31,-62.51,12.30,128.04 SURF_ID='A01' /
&OBST XB=-18.05,11.47,-92.31,-62.51,12.30,113.19 SURF_ID='Urban' /
&OBST XB=11.47,41.00,-92.31,-62.51,12.30,101.96 SURF_ID='Urban' /
&OBST XB=41.00,70.53,-92.31,-62.51,12.30,90.28 SURF_ID='A01' /
&OBST XB=70.53,100.06,-92.31,-62.51,12.30,79.85 SURF_ID='A05' /
&OBST XB=100.06,129.58,-92.31,-62.51,12.30,69.83 SURF_ID='A08' /
&OBST XB=129.58,159.11,-92.31,-62.51,12.30,63.32 SURF_ID='A08' /
&OBST XB=159.11,188.64,-92.31,-62.51,12.30,56.31 SURF_ID='A05' /
&OBST XB=188.64,218.17,-92.31,-62.51,12.30,49.35 SURF_ID='A09' /
&OBST XB=218.17,247.69,-92.31,-62.51,12.30,43.32 SURF_ID='A02' /
&OBST XB=-638.13,-608.60,-122.12,-92.31,12.30,118.67 SURF_ID='A05' /
&OBST XB=-608.60,-579.07,-122.12,-92.31,12.30,99.20 SURF_ID='A05' /
&OBST XB=-579.07,-549.55,-122.12,-92.31,12.30,82.06 SURF_ID='A05' /
&OBST XB=-549.55,-520.02,-122.12,-92.31,12.30,80.81 SURF_ID='A05' /
&OBST XB=-520.02,-490.49,-122.12,-92.31,12.30,82.37 SURF_ID='A05' /
&OBST XB=-490.49,-460.96,-122.12,-92.31,12.30,73.86 SURF_ID='A05' /
&OBST XB=-460.96,-431.44,-122.12,-92.31,12.30,89.25 SURF_ID='A05' /
&OBST XB=-431.44,-401.91,-122.12,-92.31,12.30,99.07 SURF_ID='A05' /
&OBST XB=-401.91,-372.38,-122.12,-92.31,12.30,111.59 SURF_ID='A05' /
&OBST XB=-372.38,-342.85,-122.12,-92.31,12.30,128.46 SURF_ID='A05' /
&OBST XB=-342.85,-313.33,-122.12,-92.31,12.30,144.54 SURF_ID='Ignition' /
&OBST XB=-313.33,-283.80,-122.12,-92.31,12.30,157.67 SURF_ID='Urban' /
&OBST XB=-283.80,-254.27,-122.12,-92.31,12.30,170.60 SURF_ID='Urban' /
&OBST XB=-254.27,-224.75,-122.12,-92.31,12.30,186.35 SURF_ID='Urban' /
&OBST XB=-224.75,-195.22,-122.12,-92.31,12.30,201.02 SURF_ID='A02' /
&OBST XB=-195.22,-165.69,-122.12,-92.31,12.30,207.12 SURF_ID='A02' /
&OBST XB=-165.69,-136.16,-122.12,-92.31,12.30,197.08 SURF_ID='A02' /
&OBST XB=-136.16,-106.64,-122.12,-92.31,12.30,180.58 SURF_ID='A02' /
&OBST XB=-106.64,-77.11,-122.12,-92.31,12.30,163.93 SURF_ID='A02' /
&OBST XB=-77.11,-47.58,-122.12,-92.31,12.30,148.13 SURF_ID='A02' /
&OBST XB=-47.58,-18.05,-122.12,-92.31,12.30,129.08 SURF_ID='Urban' /
&OBST XB=-18.05,11.47,-122.12,-92.31,12.30,112.98 SURF_ID='Urban' /
&OBST XB=11.47,41.00,-122.12,-92.31,12.30,101.21 SURF_ID='A05' /
&OBST XB=41.00,70.53,-122.12,-92.31,12.30,88.66 SURF_ID='A01' /
&OBST XB=70.53,100.06,-122.12,-92.31,12.30,78.66 SURF_ID='A05' /
&OBST XB=100.06,129.58,-122.12,-92.31,12.30,70.06 SURF_ID='A12' /
&OBST XB=129.58,159.11,-122.12,-92.31,12.30,62.87 SURF_ID='A05' /
&OBST XB=159.11,188.64,-122.12,-92.31,12.30,56.58 SURF_ID='A05' /
&OBST XB=188.64,218.17,-122.12,-92.31,12.30,48.54 SURF_ID='A05' /
&OBST XB=218.17,247.69,-122.12,-92.31,12.30,42.13 SURF_ID='A10' /
&OBST XB=-638.13,-608.60,-151.92,-122.12,12.30,110.74 SURF_ID='A05' /
&OBST XB=-608.60,-579.07,-151.92,-122.12,12.30,91.18 SURF_ID='A05' /
&OBST XB=-579.07,-549.55,-151.92,-122.12,12.30,68.42 SURF_ID='A05' /
&OBST XB=-549.55,-520.02,-151.92,-122.12,12.30,67.27 SURF_ID='A05' /
&OBST XB=-520.02,-490.49,-151.92,-122.12,12.30,66.73 SURF_ID='A05' /
&OBST XB=-490.49,-460.96,-151.92,-122.12,12.30,65.56 SURF_ID='A05' /
&OBST XB=-460.96,-431.44,-151.92,-122.12,12.30,77.92 SURF_ID='A05' /
&OBST XB=-431.44,-401.91,-151.92,-122.12,12.30,90.88 SURF_ID='A05' /
&OBST XB=-401.91,-372.38,-151.92,-122.12,12.30,109.85 SURF_ID='A05' /
&OBST XB=-372.38,-342.85,-151.92,-122.12,12.30,123.21 SURF_ID='A05' /
&OBST XB=-342.85,-313.33,-151.92,-122.12,12.30,136.28 SURF_ID='A05' /
&OBST XB=-313.33,-283.80,-151.92,-122.12,12.30,149.06 SURF_ID='A05' /
&OBST XB=-283.80,-254.27,-151.92,-122.12,12.30,161.02 SURF_ID='A02' /
&OBST XB=-254.27,-224.75,-151.92,-122.12,12.30,177.79 SURF_ID='Urban' /
&OBST XB=-224.75,-195.22,-151.92,-122.12,12.30,194.11 SURF_ID='Urban' /
&OBST XB=-195.22,-165.69,-151.92,-122.12,12.30,208.25 SURF_ID='A02' /
&OBST XB=-165.69,-136.16,-151.92,-122.12,12.30,201.20 SURF_ID='A02' /
&OBST XB=-136.16,-106.64,-151.92,-122.12,12.30,184.80 SURF_ID='A02' /
&OBST XB=-106.64,-77.11,-151.92,-122.12,12.30,167.77 SURF_ID='A02' /
&OBST XB=-77.11,-47.58,-151.92,-122.12,12.30,151.04 SURF_ID='A01' /
&OBST XB=-47.58,-18.05,-151.92,-122.12,12.30,131.61 SURF_ID='Ignition' /
&OBST XB=-18.05,11.47,-151.92,-122.12,12.30,114.37 SURF_ID='Ignition' /
&OBST XB=11.47,41.00,-151.92,-122.12,12.30,99.44 SURF_ID='Ignition' /
&OBST XB=41.00,70.53,-151.92,-122.12,12.30,88.37 SURF_ID='A05' /
&OBST XB=70.53,100.06,-151.92,-122.12,12.30,80.24 SURF_ID='A05' /
&OBST XB=100.06,129.58,-151.92,-122.12,12.30,71.95 SURF_ID='A05' /
&OBST XB=129.58,159.11,-151.92,-122.12,12.30,63.68 SURF_ID='A10' /
&OBST XB=159.11,188.64,-151.92,-122.12,12.30,55.97 SURF_ID='A05' /
&OBST XB=188.64,218.17,-151.92,-122.12,12.30,48.58 SURF_ID='A05' /
&OBST XB=218.17,247.69,-151.92,-122.12,12.30,40.53 SURF_ID='A05' /
&OBST XB=-638.13,-608.60,-181.73,-151.92,12.30,101.80 SURF_ID='A05' /
&OBST XB=-608.60,-579.07,-181.73,-151.92,12.30,84.66 SURF_ID='A05' /
&OBST XB=-579.07,-549.55,-181.73,-151.92,12.30,64.03 SURF_ID='A12' /
&OBST XB=-549.55,-520.02,-181.73,-151.92,12.30,55.72 SURF_ID='A05' /
&OBST XB=-520.02,-490.49,-181.73,-151.92,12.30,54.64 SURF_ID='Ignition' /
&OBST XB=-490.49,-460.96,-181.73,-151.92,12.30,60.45 SURF_ID='Ignition' /
&OBST XB=-460.96,-431.44,-181.73,-151.92,12.30,75.47 SURF_ID='Ignition' /
&OBST XB=-431.44,-401.91,-181.73,-151.92,12.30,90.55 SURF_ID='A05' /
&OBST XB=-401.91,-372.38,-181.73,-151.92,12.30,103.09 SURF_ID='A05' /
&OBST XB=-372.38,-342.85,-181.73,-151.92,12.30,112.65 SURF_ID='A05' /
&OBST XB=-342.85,-313.33,-181.73,-151.92,12.30,125.47 SURF_ID='A05' /
&OBST XB=-313.33,-283.80,-181.73,-151.92,12.30,138.62 SURF_ID='A05' /
&OBST XB=-283.80,-254.27,-181.73,-151.92,12.30,152.67 SURF_ID='A02' /
&OBST XB=-254.27,-224.75,-181.73,-151.92,12.30,171.73 SURF_ID='A02' /
&OBST XB=-224.75,-195.22,-181.73,-151.92,12.30,189.85 SURF_ID='Urban' /
&OBST XB=-195.22,-165.69,-181.73,-151.92,12.30,204.09 SURF_ID='A02' /
&OBST XB=-165.69,-136.16,-181.73,-151.92,12.30,199.76 SURF_ID='A02' /
&OBST XB=-136.16,-106.64,-181.73,-151.92,12.30,183.01 SURF_ID='A02' /
&OBST XB=-106.64,-77.11,-181.73,-151.92,12.30,165.79 SURF_ID='Ignition' /
&OBST XB=-77.11,-47.58,-181.73,-151.92,12.30,149.97 SURF_ID='Ignition' /
&OBST XB=-47.58,-18.05,-181.73,-151.92,12.30,131.93 SURF_ID='Ignition' /
&OBST XB=-18.05,11.47,-181.73,-151.92,12.30,117.01 SURF_ID='Ignition' /
&OBST XB=11.47,41.00,-181.73,-151.92,12.30,100.76 SURF_ID='Ignition' /
&OBST XB=41.00,70.53,-181.73,-151.92,12.30,90.66 SURF_ID='Ignition' /
&OBST XB=70.53,100.06,-181.73,-151.92,12.30,81.55 SURF_ID='A08' /
&OBST XB=100.06,129.58,-181.73,-151.92,12.30,71.77 SURF_ID='A08' /
&OBST XB=129.58,159.11,-181.73,-151.92,12.30,63.59 SURF_ID='A10' /
&OBST XB=159.11,188.64,-181.73,-151.92,12.30,55.68 SURF_ID='A05' /
&OBST XB=188.64,218.17,-181.73,-151.92,12.30,50.25 SURF_ID='A05' /
&OBST XB=218.17,247.69,-181.73,-151.92,12.30,42.91 SURF_ID='A01' /
&OBST XB=-638.13,-608.60,-211.53,-181.73,12.30,91.86 SURF_ID='A05' /
&OBST XB=-608.60,-579.07,-211.53,-181.73,12.30,79.54 SURF_ID='A05' /
&OBST XB=-579.07,-549.55,-211.53,-181.73,12.30,61.69 SURF_ID='A12' /
&OBST XB=-549.55,-520.02,-211.53,-181.73,12.30,48.32 SURF_ID='Ignition' /
&OBST XB=-520.02,-490.49,-211.53,-181.73,12.30,47.62 SURF_ID='Burned' /
&OBST XB=-490.49,-460.96,-211.53,-181.73,12.30,59.27 SURF_ID='Burned' /
&OBST XB=-460.96,-431.44,-211.53,-181.73,12.30,73.38 SURF_ID='Burned' /
&OBST XB=-431.44,-401.91,-211.53,-181.73,12.30,85.88 SURF_ID='Ignition' /
&OBST XB=-401.91,-372.38,-211.53,-181.73,12.30,91.28 SURF_ID='A05' /
&OBST XB=-372.38,-342.85,-211.53,-181.73,12.30,98.75 SURF_ID='A05' /
&OBST XB=-342.85,-313.33,-211.53,-181.73,12.30,112.04 SURF_ID='A05' /
&OBST XB=-313.33,-283.80,-211.53,-181.73,12.30,130.95 SURF_ID='A05' /
&OBST XB=-283.80,-254.27,-211.53,-181.73,12.30,150.30 SURF_ID='A02' /
&OBST XB=-254.27,-224.75,-211.53,-181.73,12.30,168.73 SURF_ID='A02' /
&OBST XB=-224.75,-195.22,-211.53,-181.73,12.30,187.65 SURF_ID='Urban' /
&OBST XB=-195.22,-165.69,-211.53,-181.73,12.30,199.04 SURF_ID='Urban' /
&OBST XB=-165.69,-136.16,-211.53,-181.73,12.30,196.42 SURF_ID='A02' /
&OBST XB=-136.16,-106.64,-211.53,-181.73,12.30,181.11 SURF_ID='A02' /
&OBST XB=-106.64,-77.11,-211.53,-181.73,12.30,163.31 SURF_ID='A02' /
&OBST XB=-77.11,-47.58,-211.53,-181.73,12.30,147.85 SURF_ID='A02' /
&OBST XB=-47.58,-18.05,-211.53,-181.73,12.30,131.37 SURF_ID='Ignition' /
&OBST XB=-18.05,11.47,-211.53,-181.73,12.30,120.19 SURF_ID='Ignition' /
&OBST XB=11.47,41.00,-211.53,-181.73,12.30,106.12 SURF_ID='Ignition' /
&OBST XB=41.00,70.53,-211.53,-181.73,12.30,95.90 SURF_ID='A08' /
&OBST XB=70.53,100.06,-211.53,-181.73,12.30,84.81 SURF_ID='A05' /
&OBST XB=100.06,129.58,-211.53,-181.73,12.30,74.32 SURF_ID='A10' /
&OBST XB=129.58,159.11,-211.53,-181.73,12.30,64.29 SURF_ID='A10' /
&OBST XB=159.11,188.64,-211.53,-181.73,12.30,56.46 SURF_ID='A05' /
&OBST XB=188.64,218.17,-211.53,-181.73,12.30,52.12 SURF_ID='A05' /
&OBST XB=218.17,247.69,-211.53,-181.73,12.30,46.83 SURF_ID='A05' /
&OBST XB=-638.13,-608.60,-241.34,-211.53,12.30,80.78 SURF_ID='A05' /
&OBST XB=-608.60,-579.07,-241.34,-211.53,12.30,74.09 SURF_ID='A08' /
&OBST XB=-579.07,-549.55,-241.34,-211.53,12.30,58.39 SURF_ID='A05' /
&OBST XB=-549.55,-520.02,-241.34,-211.53,12.30,42.17 SURF_ID='Ignition' /
&OBST XB=-520.02,-490.49,-241.34,-211.53,12.30,44.83 SURF_ID='Ignition' /
&OBST XB=-490.49,-460.96,-241.34,-211.53,12.30,55.80 SURF_ID='Ignition' /
&OBST XB=-460.96,-431.44,-241.34,-211.53,12.30,65.43 SURF_ID='Burned' /
&OBST XB=-431.44,-401.91,-241.34,-211.53,12.30,71.53 SURF_ID='Burned' /
&OBST XB=-401.91,-372.38,-241.34,-211.53,12.30,78.19 SURF_ID='Ignition' /
&OBST XB=-372.38,-342.85,-241.34,-211.53,12.30,91.58 SURF_ID='A05' /
&OBST XB=-342.85,-313.33,-241.34,-211.53,12.30,111.24 SURF_ID='A05' /
&OBST XB=-313.33,-283.80,-241.34,-211.53,12.30,132.17 SURF_ID='A05' /
&OBST XB=-283.80,-254.27,-241.34,-211.53,12.30,149.74 SURF_ID='A05' /
&OBST XB=-254.27,-224.75,-241.34,-211.53,12.30,167.36 SURF_ID='A02' /
&OBST XB=-224.75,-195.22,-241.34,-211.53,12.30,186.45 SURF_ID='Burned' /
&OBST XB=-195.22,-165.69,-241.34,-211.53,12.30,196.23 SURF_ID='Burned' /
&OBST XB=-165.69,-136.16,-241.34,-211.53,12.30,192.61 SURF_ID='Burned' /
&OBST XB=-136.16,-106.64,-241.34,-211.53,12.30,178.84 SURF_ID='A02' /
&OBST XB=-106.64,-77.11,-241.34,-211.53,12.30,164.34 SURF_ID='A02' /
&OBST XB=-77.11,-47.58,-241.34,-211.53,12.30,148.97 SURF_ID='A02' /
&OBST XB=-47.58,-18.05,-241.34,-211.53,12.30,134.51 SURF_ID='Urban' /
&OBST XB=-18.05,11.47,-241.34,-211.53,12.30,126.30 SURF_ID='Ignition' /
&OBST XB=11.47,41.00,-241.34,-211.53,12.30,118.20 SURF_ID='A01' /
&OBST XB=41.00,70.53,-241.34,-211.53,12.30,107.35 SURF_ID='A05' /
&OBST XB=70.53,100.06,-241.34,-211.53,12.30,94.05 SURF_ID='A05' /
&OBST XB=100.06,129.58,-241.34,-211.53,12.30,80.92 SURF_ID='A05' /
&OBST XB=129.58,159.11,-241.34,-211.53,12.30,68.61 SURF_ID='A05' /
&OBST XB=159.11,188.64,-241.34,-211.53,12.30,60.04 SURF_ID='A12' /
&OBST XB=188.64,218.17,-241.34,-211.53,12.30,52.80 SURF_ID='A10' /
&OBST XB=218.17,247.69,-241.34,-211.53,12.30,50.38 SURF_ID='A01' /