!!! Generated by qgis2fds <0.91> on QGIS <3.22.2-Biaowiea>
!!! QGIS file: <...cation/tests/test_golden_gate_local/golden_gate_local.qgs>
!!! Date: <sab, 15 gen 2022, 08:44:23>
! Selected UTM CRS: <WGS 84 / UTM zone 10N>
! Domain origin: <545409.6, 4187342.0>
!   <http://www.openstreetmap.org/?mlat=37.83237143343951&mlon=-122.48396425386197&zoom=12>
! Domain extent: <544771.5,4186832.4 : 545657.3,4187488.1>
! DEM layer: <US_DEM2016_local> with 30.2m resolution
! Landuse layer: <US_200F13_20_local>
! Fire layer: <fire>
! Landuse type file: <...ation/tests/test_golden_gate_local/./Landfire.gov_F13.csv>
! Wind file: <...sfds.verification/tests/test_golden_gate_local/./wind.csv>

&HEAD CHID='golden_gate_local' TITLE='Description of golden_gate_local' /

! MISC LEVEL_SET_MODE parameter
! 1: Wind not affected by the terrain. No fire.
! 2: Wind field established over the terrain, then frozen. No fire.
! 3: Wind field following the terrain, no fire.
! 4: Wind and fire fully-coupled.

&MISC ORIGIN_LAT=37.8323714
      ORIGIN_LON=-122.4839643
      NORTH_BEARING=0.
      TERRAIN_IMAGE='golden_gate_local_obst_tex.png'
      LEVEL_SET_MODE=1 /

&TIME T_END=0. /

! Example REAC, used when LEVEL_SET_MODE=4
!REAC ID='Wood' SOOT_YIELD=0.02 O=2.5 C=3.4 H=6.2
      HEAT_OF_COMBUSTION=17700. /


! Domain and its boundary conditions
! 2 x 2 meshes of 443m x 328m x 355m size and 49280 cells each
&MULT ID='Meshes'
      DX=442.9 I_LOWER=0 I_UPPER=1
      DY=327.8 J_LOWER=0 J_UPPER=1 /
&MESH IJK=44,32,35 MULT_ID='Meshes'
      XB=-638.1,-195.2,-509.6,-181.7,-3.0,352.0 /
&VENT ID='Domain BC XMIN' DB='XMIN' SURF_ID='OPEN' /
&VENT ID='Domain BC XMAX' DB='XMAX' SURF_ID='OPEN' /
&VENT ID='Domain BC YMIN' DB='YMIN' SURF_ID='OPEN' /
&VENT ID='Domain BC YMAX' DB='YMAX' SURF_ID='OPEN' /
&VENT ID='Domain BC ZMAX' DB='ZMAX' SURF_ID='OPEN' /

! Landuse boundary conditions
&SURF ID='NA' RGB=255,255,255 /
&SURF ID='A01' RGB=255,254,212 VEG_LSET_FUEL_INDEX=1 /
&SURF ID='A02' RGB=255,253,102 VEG_LSET_FUEL_INDEX=2 /
&SURF ID='A03' RGB=236,212,99 VEG_LSET_FUEL_INDEX=3 /
&SURF ID='A04' RGB=254,193,119 VEG_LSET_FUEL_INDEX=4 /
&SURF ID='A05' RGB=249,197,92 VEG_LSET_FUEL_INDEX=5 /
&SURF ID='A06' RGB=217,196,152 VEG_LSET_FUEL_INDEX=6 /
&SURF ID='A07' RGB=170,155,127 VEG_LSET_FUEL_INDEX=7 /
&SURF ID='A08' RGB=229,253,214 VEG_LSET_FUEL_INDEX=8 /
&SURF ID='A09' RGB=162,191,90 VEG_LSET_FUEL_INDEX=9 /
&SURF ID='A10' RGB=114,154,85 VEG_LSET_FUEL_INDEX=10 /
&SURF ID='A11' RGB=235,212,253 VEG_LSET_FUEL_INDEX=11 /
&SURF ID='A12' RGB=163,177,243 VEG_LSET_FUEL_INDEX=12 /
&SURF ID='A13' RGB=0,0,0 VEG_LSET_FUEL_INDEX=13 /
&SURF ID='Urban' RGB=186,119,80 /
&SURF ID='Snow-Ice' RGB=234,234,234 /
&SURF ID='Agricolture' RGB=253,242,242 /
&SURF ID='Water' RGB=137,183,221 /
&SURF ID='Barren' RGB=133,153,156 /
&SURF ID='Ignition' VEG_LSET_IGNITE_TIME=0. COLOR='RED' /
&SURF ID='Burned' RGB=20,20,20 /

! Output quantities
&SLCF AGL_SLICE=5. QUANTITY='LEVEL SET VALUE' /
&SLCF AGL_SLICE=5. QUANTITY='TEMPERATURE' VECTOR=T /
&SLCF PBX=0.0 QUANTITY='TEMPERATURE' VECTOR=T /
&SLCF PBY=0.0 QUANTITY='TEMPERATURE' VECTOR=T /

! Output for wind rose at origin
&DEVC ID='Origin_UV' XYZ=0.,0.,351.0 QUANTITY='U-VELOCITY' /
&DEVC ID='Origin_VV' XYZ=0.,0.,351.0 QUANTITY='V-VELOCITY' /
&DEVC ID='Origin_WV' XYZ=0.,0.,351.0 QUANTITY='W-VELOCITY' /

! Wind
&WIND SPEED=1., RAMP_SPEED_T='ws', RAMP_DIRECTION_T='wd' /
&RAMP ID='ws', T=0.0, F=2.0 /
&RAMP ID='ws', T=180.0, F=5.0 /
&RAMP ID='ws', T=360.0, F=10.0 /
&RAMP ID='wd', T=0.0, F=45.0 /
&RAMP ID='wd', T=180.0, F=90.0 /
&RAMP ID='wd', T=360.0, F=135.0 /

! Terrain (2300 OBSTs)
&OBST XB=-873.9,-844.6,125.4,96.7,0.0,170.0 SURF_ID='A05' /
&OBST XB=-844.6,-815.4,133.8,105.1,0.0,172.0 SURF_ID='A05' /
&OBST XB=-815.4,-786.1,142.2,113.5,0.0,174.0 SURF_ID='A05' /
&OBST XB=-786.1,-756.8,150.6,121.8,0.0,177.0 SURF_ID='A02' /
&OBST XB=-756.8,-727.6,159.0,130.2,0.0,189.0 SURF_ID='A02' /
&OBST XB=-727.6,-698.3,167.3,138.6,0.0,203.0 SURF_ID='A02' /
&OBST XB=-698.3,-669.1,175.7,147.0,0.0,217.0 SURF_ID='A02' /
&OBST XB=-669.1,-639.8,184.1,155.4,0.0,225.0 SURF_ID='A02' /
&OBST XB=-639.8,-610.5,192.5,163.8,0.0,231.0 SURF_ID='A02' /
&OBST XB=-610.5,-581.3,200.9,172.2,0.0,235.0 SURF_ID='A02' /
&OBST XB=-581.3,-552.0,209.3,180.5,0.0,233.0 SURF_ID='A02' /
&OBST XB=-552.0,-522.8,217.6,188.9,0.0,238.0 SURF_ID='A02' /
&OBST XB=-522.8,-493.5,226.0,197.3,0.0,249.0 SURF_ID='A02' /
&OBST XB=-493.5,-464.2,234.4,205.7,0.0,251.0 SURF_ID='A02' /
&OBST XB=-464.2,-435.0,242.8,214.1,0.0,252.0 SURF_ID='A02' /
&OBST XB=-435.0,-405.7,251.2,222.5,0.0,249.0 SURF_ID='A05' /
&OBST XB=-405.7,-376.5,259.6,230.9,0.0,234.0 SURF_ID='A05' /
&OBST XB=-376.5,-347.2,268.0,239.2,0.0,214.0 SURF_ID='A05' /
&OBST XB=-347.2,-318.0,276.3,247.6,0.0,191.0 SURF_ID='A05' /
&OBST XB=-318.0,-288.7,284.7,256.0,0.0,176.0 SURF_ID='A05' /
&OBST XB=-288.7,-259.4,293.1,264.4,0.0,158.0 SURF_ID='A05' /
&OBST XB=-259.4,-230.2,301.5,272.8,0.0,142.0 SURF_ID='A05' /
&OBST XB=-230.2,-200.9,309.9,281.2,0.0,128.0 SURF_ID='A05' /
&OBST XB=-200.9,-171.7,318.3,289.5,0.0,115.0 SURF_ID='A08' /
&OBST XB=-171.7,-142.4,326.6,297.9,0.0,106.0 SURF_ID='A08' /
&OBST XB=-142.4,-113.1,335.0,306.3,0.0,95.0 SURF_ID='A05' /
&OBST XB=-113.1,-83.9,343.4,314.7,0.0,86.0 SURF_ID='Urban' /
&OBST XB=-83.9,-54.6,351.8,323.1,0.0,91.0 SURF_ID='Urban' /
&OBST XB=-54.6,-25.4,360.2,331.5,0.0,90.0 SURF_ID='Urban' /
&OBST XB=-25.4,3.9,368.6,339.9,0.0,86.0 SURF_ID='Urban' /
&OBST XB=3.9,33.1,377.0,348.2,0.0,78.0 SURF_ID='Urban' /
&OBST XB=33.1,62.4,385.3,356.6,0.0,64.0 SURF_ID='Urban' /
&OBST XB=62.4,91.7,393.7,365.0,0.0,61.0 SURF_ID='Urban' /
&OBST XB=91.7,120.9,402.1,373.4,0.0,62.0 SURF_ID='A05' /
&OBST XB=120.9,150.2,410.5,381.8,0.0,64.0 SURF_ID='A05' /
&OBST XB=150.2,179.4,418.9,390.2,0.0,66.0 SURF_ID='A01' /
&OBST XB=179.4,208.7,427.3,398.5,0.0,61.0 SURF_ID='A01' /
&OBST XB=-865.3,-836.1,96.7,68.0,0.0,158.0 SURF_ID='A08' /
&OBST XB=-836.1,-806.8,105.1,76.4,0.0,162.0 SURF_ID='A08' /
&OBST XB=-806.8,-777.5,113.5,84.7,0.0,165.0 SURF_ID='A01' /
&OBST XB=-777.5,-748.3,121.8,93.1,0.0,168.0 SURF_ID='A02' /
&OBST XB=-748.3,-719.0,130.2,101.5,0.0,175.0 SURF_ID='A02' /
&OBST XB=-719.0,-689.8,138.6,109.9,0.0,196.0 SURF_ID='A02' /
&OBST XB=-689.8,-660.5,147.0,118.3,0.0,208.0 SURF_ID='A02' /
&OBST XB=-660.5,-631.2,155.4,126.7,0.0,214.0 SURF_ID='A02' /
&OBST XB=-631.2,-602.0,163.8,135.1,0.0,218.0 SURF_ID='A02' /
&OBST XB=-602.0,-572.7,172.2,143.4,0.0,218.0 SURF_ID='A02' /
&OBST XB=-572.7,-543.5,180.5,151.8,0.0,219.0 SURF_ID='A02' /
&OBST XB=-543.5,-514.2,188.9,160.2,0.0,229.0 SURF_ID='A02' /
&OBST XB=-514.2,-485.0,197.3,168.6,0.0,236.0 SURF_ID='A02' /
&OBST XB=-485.0,-455.7,205.7,177.0,0.0,233.0 SURF_ID='A02' /
&OBST XB=-455.7,-426.4,214.1,185.4,0.0,236.0 SURF_ID='A02' /
&OBST XB=-426.4,-397.2,222.5,193.7,0.0,241.0 SURF_ID='A05' /
&OBST XB=-397.2,-367.9,230.9,202.1,0.0,235.0 SURF_ID='A05' /
&OBST XB=-367.9,-338.7,239.2,210.5,0.0,218.0 SURF_ID='A05' /
&OBST XB=-338.7,-309.4,247.6,218.9,0.0,198.0 SURF_ID='A05' /
&OBST XB=-309.4,-280.1,256.0,227.3,0.0,182.0 SURF_ID='A05' /
&OBST XB=-280.1,-250.9,264.4,235.7,0.0,165.0 SURF_ID='A05' /
&OBST XB=-250.9,-221.6,272.8,244.1,0.0,149.0 SURF_ID='A05' /
&OBST XB=-221.6,-192.4,281.2,252.4,0.0,133.0 SURF_ID='A05' /
&OBST XB=-192.4,-163.1,289.5,260.8,0.0,116.0 SURF_ID='A05' /
&OBST XB=-163.1,-133.9,297.9,269.2,0.0,101.0 SURF_ID='A08' /
&OBST XB=-133.9,-104.6,306.3,277.6,0.0,89.0 SURF_ID='A08' /
&OBST XB=-104.6,-75.3,314.7,286.0,0.0,85.0 SURF_ID='Urban' /
&OBST XB=-75.3,-46.1,323.1,294.4,0.0,90.0 SURF_ID='Urban' /
&OBST XB=-46.1,-16.8,331.5,302.7,0.0,88.0 SURF_ID='Urban' /
&OBST XB=-16.8,12.4,339.9,311.1,0.0,84.0 SURF_ID='Urban' /
&OBST XB=12.4,41.7,348.2,319.5,0.0,68.0 SURF_ID='Urban' /
&OBST XB=41.7,71.0,356.6,327.9,0.0,54.0 SURF_ID='A08' /
&OBST XB=71.0,100.2,365.0,336.3,0.0,53.0 SURF_ID='A05' /
&OBST XB=100.2,129.5,373.4,344.7,0.0,53.0 SURF_ID='A05' /
&OBST XB=129.5,158.7,381.8,353.1,0.0,54.0 SURF_ID='A05' /
&OBST XB=158.7,188.0,390.2,361.4,0.0,55.0 SURF_ID='A05' /
&OBST XB=188.0,217.2,398.5,369.8,0.0,51.0 SURF_ID='A01' /
&OBST XB=-856.8,-827.5,68.0,39.3,0.0,149.0 SURF_ID='A08' /
&OBST XB=-827.5,-798.2,76.4,47.6,0.0,152.0 SURF_ID='A08' /
&OBST XB=-798.2,-769.0,84.7,56.0,0.0,155.0 SURF_ID='A05' /
&OBST XB=-769.0,-739.7,93.1,64.4,0.0,161.0 SURF_ID='A01' /
&OBST XB=-739.7,-710.5,101.5,72.8,0.0,169.0 SURF_ID='A05' /
&OBST XB=-710.5,-681.2,109.9,81.2,0.0,189.0 SURF_ID='A02' /
&OBST XB=-681.2,-652.0,118.3,89.6,0.0,201.0 SURF_ID='A02' /
&OBST XB=-652.0,-622.7,126.7,97.9,0.0,200.0 SURF_ID='A02' /
&OBST XB=-622.7,-593.4,135.1,106.3,0.0,199.0 SURF_ID='A02' /
&OBST XB=-593.4,-564.2,143.4,114.7,0.0,200.0 SURF_ID='A02' /
&OBST XB=-564.2,-534.9,151.8,123.1,0.0,207.0 SURF_ID='A02' /
&OBST XB=-534.9,-505.7,160.2,131.5,0.0,218.0 SURF_ID='A02' /
&OBST XB=-505.7,-476.4,168.6,139.9,0.0,220.0 SURF_ID='Barren' /
&OBST XB=-476.4,-447.1,177.0,148.3,0.0,217.0 SURF_ID='A02' /
&OBST XB=-447.1,-417.9,185.4,156.6,0.0,219.0 SURF_ID='A02' /
&OBST XB=-417.9,-388.6,193.7,165.0,0.0,228.0 SURF_ID='A04' /
&OBST XB=-388.6,-359.4,202.1,173.4,0.0,235.0 SURF_ID='A05' /
&OBST XB=-359.4,-330.1,210.5,181.8,0.0,225.0 SURF_ID='A05' /
&OBST XB=-330.1,-300.9,218.9,190.2,0.0,209.0 SURF_ID='A05' /
&OBST XB=-300.9,-271.6,227.3,198.6,0.0,192.0 SURF_ID='A05' /
&OBST XB=-271.6,-242.3,235.7,207.0,0.0,176.0 SURF_ID='A05' /
&OBST XB=-242.3,-213.1,244.1,215.3,0.0,159.0 SURF_ID='A05' /
&OBST XB=-213.1,-183.8,252.4,223.7,0.0,142.0 SURF_ID='A05' /
&OBST XB=-183.8,-154.6,260.8,232.1,0.0,121.0 SURF_ID='A05' /
&OBST XB=-154.6,-125.3,269.2,240.5,0.0,105.0 SURF_ID='A05' /
&OBST XB=-125.3,-96.0,277.6,248.9,0.0,92.0 SURF_ID='A10' /
&OBST XB=-96.0,-66.8,286.0,257.3,0.0,85.0 SURF_ID='Urban' /
&OBST XB=-66.8,-37.5,294.4,265.6,0.0,88.0 SURF_ID='Urban' /
&OBST XB=-37.5,-8.3,302.7,274.0,0.0,87.0 SURF_ID='Urban' /
&OBST XB=-8.3,21.0,311.1,282.4,0.0,84.0 SURF_ID='Urban' /
&OBST XB=21.0,50.2,319.5,290.8,0.0,63.0 SURF_ID='Urban' /
&OBST XB=50.2,79.5,327.9,299.2,0.0,47.0 SURF_ID='A10' /
&OBST XB=79.5,108.8,336.3,307.6,0.0,44.0 SURF_ID='A10' /
&OBST XB=108.8,138.0,344.7,316.0,0.0,44.0 SURF_ID='A05' /
&OBST XB=138.0,167.3,353.1,324.3,0.0,41.0 SURF_ID='A05' /
&OBST XB=167.3,196.5,361.4,332.7,0.0,40.0 SURF_ID='A02' /
&OBST XB=196.5,225.8,369.8,341.1,0.0,39.0 SURF_ID='A05' /
&OBST XB=-848.2,-819.0,39.3,10.5,0.0,140.0 SURF_ID='Urban' /
&OBST XB=-819.0,-789.7,47.6,18.9,0.0,144.0 SURF_ID='A08' /
&OBST XB=-789.7,-760.4,56.0,27.3,0.0,146.0 SURF_ID='A08' /
&OBST XB=-760.4,-731.2,64.4,35.7,0.0,154.0 SURF_ID='A01' /
&OBST XB=-731.2,-701.9,72.8,44.1,0.0,165.0 SURF_ID='A05' /
&OBST XB=-701.9,-672.7,81.2,52.5,0.0,182.0 SURF_ID='A02' /
&OBST XB=-672.7,-643.4,89.6,60.8,0.0,193.0 SURF_ID='A02' /
&OBST XB=-643.4,-614.1,97.9,69.2,0.0,187.0 SURF_ID='A02' /
&OBST XB=-614.1,-584.9,106.3,77.6,0.0,179.0 SURF_ID='A02' /
&OBST XB=-584.9,-555.6,114.7,86.0,0.0,182.0 SURF_ID='A02' /
&OBST XB=-555.6,-526.4,123.1,94.4,0.0,197.0 SURF_ID='A02' /
&OBST XB=-526.4,-497.1,131.5,102.8,0.0,207.0 SURF_ID='Barren' /
&OBST XB=-497.1,-467.9,139.9,111.2,0.0,204.0 SURF_ID='Barren' /
&OBST XB=-467.9,-438.6,148.3,119.5,0.0,200.0 SURF_ID='A02' /
&OBST XB=-438.6,-409.3,156.6,127.9,0.0,204.0 SURF_ID='A02' /
&OBST XB=-409.3,-380.1,165.0,136.3,0.0,215.0 SURF_ID='A04' /
&OBST XB=-380.1,-350.8,173.4,144.7,0.0,229.0 SURF_ID='A05' /
&OBST XB=-350.8,-321.6,181.8,153.1,0.0,231.0 SURF_ID='A05' /
&OBST XB=-321.6,-292.3,190.2,161.5,0.0,217.0 SURF_ID='A05' /
&OBST XB=-292.3,-263.0,198.6,169.8,0.0,200.0 SURF_ID='A05' /
&OBST XB=-263.0,-233.8,207.0,178.2,0.0,183.0 SURF_ID='A05' /
&OBST XB=-233.8,-204.5,215.3,186.6,0.0,166.0 SURF_ID='A05' /
&OBST XB=-204.5,-175.3,223.7,195.0,0.0,147.0 SURF_ID='A05' /
&OBST XB=-175.3,-146.0,232.1,203.4,0.0,128.0 SURF_ID='A05' /
&OBST XB=-146.0,-116.8,240.5,211.8,0.0,113.0 SURF_ID='A05' /
&OBST XB=-116.8,-87.5,248.9,220.2,0.0,99.0 SURF_ID='A05' /
&OBST XB=-87.5,-58.2,257.3,228.5,0.0,85.0 SURF_ID='Urban' /
&OBST XB=-58.2,-29.0,265.6,236.9,0.0,86.0 SURF_ID='Urban' /
&OBST XB=-29.0,0.3,274.0,245.3,0.0,86.0 SURF_ID='Urban' /
&OBST XB=0.3,29.5,282.4,253.7,0.0,82.0 SURF_ID='Urban' /
&OBST XB=29.5,58.8,290.8,262.1,0.0,64.0 SURF_ID='A05' /
&OBST XB=58.8,88.1,299.2,270.5,0.0,45.0 SURF_ID='A05' /
&OBST XB=88.1,117.3,307.6,278.8,0.0,38.0 SURF_ID='A09' /
&OBST XB=117.3,146.6,316.0,287.2,0.0,36.0 SURF_ID='A08' /
&OBST XB=146.6,175.8,324.3,295.6,0.0,32.0 SURF_ID='A10' /
&OBST XB=175.8,205.1,332.7,304.0,0.0,31.0 SURF_ID='Urban' /
&OBST XB=205.1,234.4,341.1,312.4,0.0,29.0 SURF_ID='Urban' /
&OBST XB=-839.7,-810.4,10.5,-18.2,0.0,131.0 SURF_ID='Urban' /
&OBST XB=-810.4,-781.1,18.9,-9.8,0.0,132.0 SURF_ID='Urban' /
&OBST XB=-781.1,-751.9,27.3,-1.4,0.0,137.0 SURF_ID='A05' /
&OBST XB=-751.9,-722.6,35.7,7.0,0.0,147.0 SURF_ID='A05' /
&OBST XB=-722.6,-693.4,44.1,15.4,0.0,164.0 SURF_ID='A05' /
&OBST XB=-693.4,-664.1,52.5,23.7,0.0,172.0 SURF_ID='A02' /
&OBST XB=-664.1,-634.9,60.8,32.1,0.0,183.0 SURF_ID='A02' /
&OBST XB=-634.9,-605.6,69.2,40.5,0.0,172.0 SURF_ID='A02' /
&OBST XB=-605.6,-576.3,77.6,48.9,0.0,162.0 SURF_ID='A02' /
&OBST XB=-576.3,-547.1,86.0,57.3,0.0,171.0 SURF_ID='A02' /
&OBST XB=-547.1,-517.8,94.4,65.7,0.0,190.0 SURF_ID='A02' /
&OBST XB=-517.8,-488.6,102.8,74.0,0.0,191.0 SURF_ID='A02' /
&OBST XB=-488.6,-459.3,111.2,82.4,0.0,185.0 SURF_ID='A02' /
&OBST XB=-459.3,-430.0,119.5,90.8,0.0,183.0 SURF_ID='A02' /
&OBST XB=-430.0,-400.8,127.9,99.2,0.0,190.0 SURF_ID='A02' /
&OBST XB=-400.8,-371.5,136.3,107.6,0.0,205.0 SURF_ID='A05' /
&OBST XB=-371.5,-342.3,144.7,116.0,0.0,224.0 SURF_ID='A04' /
&OBST XB=-342.3,-313.0,153.1,124.4,0.0,232.0 SURF_ID='A05' /
&OBST XB=-313.0,-283.8,161.5,132.7,0.0,222.0 SURF_ID='A05' /
&OBST XB=-283.8,-254.5,169.8,141.1,0.0,204.0 SURF_ID='A05' /
&OBST XB=-254.5,-225.2,178.2,149.5,0.0,187.0 SURF_ID='A05' /
&OBST XB=-225.2,-196.0,186.6,157.9,0.0,171.0 SURF_ID='A05' /
&OBST XB=-196.0,-166.7,195.0,166.3,0.0,154.0 SURF_ID='A05' /
&OBST XB=-166.7,-137.5,203.4,174.7,0.0,134.0 SURF_ID='A05' /
&OBST XB=-137.5,-108.2,211.8,183.1,0.0,118.0 SURF_ID='A05' /
&OBST XB=-108.2,-78.9,220.2,191.4,0.0,104.0 SURF_ID='A05' /
&OBST XB=-78.9,-49.7,228.5,199.8,0.0,89.0 SURF_ID='Urban' /
&OBST XB=-49.7,-20.4,236.9,208.2,0.0,85.0 SURF_ID='Urban' /
&OBST XB=-20.4,8.8,245.3,216.6,0.0,85.0 SURF_ID='Urban' /
&OBST XB=8.8,38.1,253.7,225.0,0.0,82.0 SURF_ID='Urban' /
&OBST XB=38.1,67.4,262.1,233.4,0.0,64.0 SURF_ID='A05' /
&OBST XB=67.4,96.6,270.5,241.7,0.0,47.0 SURF_ID='A05' /
&OBST XB=96.6,125.9,278.8,250.1,0.0,37.0 SURF_ID='A09' /
&OBST XB=125.9,155.1,287.2,258.5,0.0,33.0 SURF_ID='A09' /
&OBST XB=155.1,184.4,295.6,266.9,0.0,29.0 SURF_ID='A08' /
&OBST XB=184.4,213.6,304.0,275.3,0.0,27.0 SURF_ID='Urban' /
&OBST XB=213.6,242.9,312.4,283.7,0.0,24.0 SURF_ID='A01' /
&OBST XB=-831.1,-801.9,-18.2,-46.9,0.0,122.0 SURF_ID='A08' /
&OBST XB=-801.9,-772.6,-9.8,-38.5,0.0,121.0 SURF_ID='A09' /
&OBST XB=-772.6,-743.3,-1.4,-30.1,0.0,131.0 SURF_ID='Urban' /
&OBST XB=-743.3,-714.1,7.0,-21.7,0.0,141.0 SURF_ID='Urban' /
&OBST XB=-714.1,-684.8,15.4,-13.4,0.0,155.0 SURF_ID='A05' /
&OBST XB=-684.8,-655.6,23.7,-5.0,0.0,168.0 SURF_ID='Urban' /
&OBST XB=-655.6,-626.3,32.1,3.4,0.0,169.0 SURF_ID='Urban' /
&OBST XB=-626.3,-597.0,40.5,11.8,0.0,162.0 SURF_ID='Urban' /
&OBST XB=-597.0,-567.8,48.9,20.2,0.0,153.0 SURF_ID='Urban' /
&OBST XB=-567.8,-538.5,57.3,28.6,0.0,165.0 SURF_ID='A05' /
&OBST XB=-538.5,-509.3,65.7,36.9,0.0,174.0 SURF_ID='A02' /
&OBST XB=-509.3,-480.0,74.0,45.3,0.0,172.0 SURF_ID='A02' /
&OBST XB=-480.0,-450.8,82.4,53.7,0.0,165.0 SURF_ID='A02' /
&OBST XB=-450.8,-421.5,90.8,62.1,0.0,166.0 SURF_ID='A02' /
&OBST XB=-421.5,-392.2,99.2,70.5,0.0,183.0 SURF_ID='A02' /
&OBST XB=-392.2,-363.0,107.6,78.9,0.0,201.0 SURF_ID='A02' /
&OBST XB=-363.0,-333.7,116.0,87.3,0.0,215.0 SURF_ID='A04' /
&OBST XB=-333.7,-304.5,124.4,95.6,0.0,227.0 SURF_ID='A05' /
&OBST XB=-304.5,-275.2,132.7,104.0,0.0,224.0 SURF_ID='A05' /
&OBST XB=-275.2,-245.9,141.1,112.4,0.0,208.0 SURF_ID='A05' /
&OBST XB=-245.9,-216.7,149.5,120.8,0.0,192.0 SURF_ID='A05' /
&OBST XB=-216.7,-187.4,157.9,129.2,0.0,175.0 SURF_ID='A05' /
&OBST XB=-187.4,-158.2,166.3,137.6,0.0,158.0 SURF_ID='A05' /
&OBST XB=-158.2,-128.9,174.7,145.9,0.0,142.0 SURF_ID='A05' /
&OBST XB=-128.9,-99.6,183.1,154.3,0.0,129.0 SURF_ID='A05' /
&OBST XB=-99.6,-70.4,191.4,162.7,0.0,112.0 SURF_ID='A05' /
&OBST XB=-70.4,-41.1,199.8,171.1,0.0,102.0 SURF_ID='Urban' /
&OBST XB=-41.1,-11.9,208.2,179.5,0.0,89.0 SURF_ID='Urban' /
&OBST XB=-11.9,17.4,216.6,187.9,0.0,84.0 SURF_ID='Urban' /
&OBST XB=17.4,46.6,225.0,196.3,0.0,82.0 SURF_ID='Urban' /
&OBST XB=46.6,75.9,233.4,204.6,0.0,68.0 SURF_ID='A05' /
&OBST XB=75.9,105.2,241.7,213.0,0.0,49.0 SURF_ID='A08' /
&OBST XB=105.2,134.4,250.1,221.4,0.0,38.0 SURF_ID='A09' /
&OBST XB=134.4,163.7,258.5,229.8,0.0,35.0 SURF_ID='A09' /
&OBST XB=163.7,192.9,266.9,238.2,0.0,30.0 SURF_ID='A09' /
&OBST XB=192.9,222.2,275.3,246.6,0.0,25.0 SURF_ID='Urban' /
&OBST XB=222.2,251.5,283.7,254.9,0.0,23.0 SURF_ID='Urban' /
&OBST XB=-822.6,-793.3,-46.9,-75.6,0.0,113.0 SURF_ID='A08' /
&OBST XB=-793.3,-764.0,-38.5,-67.2,0.0,116.0 SURF_ID='A08' /
&OBST XB=-764.0,-734.8,-30.1,-58.9,0.0,129.0 SURF_ID='A05' /
&OBST XB=-734.8,-705.5,-21.7,-50.5,0.0,141.0 SURF_ID='Urban' /
&OBST XB=-705.5,-676.3,-13.4,-42.1,0.0,154.0 SURF_ID='Urban' /
&OBST XB=-676.3,-647.0,-5.0,-33.7,0.0,162.0 SURF_ID='Urban' /
&OBST XB=-647.0,-617.8,3.4,-25.3,0.0,160.0 SURF_ID='Urban' /
&OBST XB=-617.8,-588.5,11.8,-16.9,0.0,148.0 SURF_ID='A05' /
&OBST XB=-588.5,-559.2,20.2,-8.5,0.0,137.0 SURF_ID='Urban' /
&OBST XB=-559.2,-530.0,28.6,-0.2,0.0,153.0 SURF_ID='Urban' /
&OBST XB=-530.0,-500.7,36.9,8.2,0.0,158.0 SURF_ID='A05' /
&OBST XB=-500.7,-471.5,45.3,16.6,0.0,155.0 SURF_ID='A05' /
&OBST XB=-471.5,-442.2,53.7,25.0,0.0,150.0 SURF_ID='A05' /
&OBST XB=-442.2,-412.9,62.1,33.4,0.0,158.0 SURF_ID='A05' /
&OBST XB=-412.9,-383.7,70.5,41.8,0.0,174.0 SURF_ID='A02' /
&OBST XB=-383.7,-354.4,78.9,50.1,0.0,186.0 SURF_ID='A02' /
&OBST XB=-354.4,-325.2,87.3,58.5,0.0,203.0 SURF_ID='A02' /
&OBST XB=-325.2,-295.9,95.6,66.9,0.0,223.0 SURF_ID='A04' /
&OBST XB=-295.9,-266.6,104.0,75.3,0.0,225.0 SURF_ID='A05' /
&OBST XB=-266.6,-237.4,112.4,83.7,0.0,214.0 SURF_ID='A05' /
&OBST XB=-237.4,-208.1,120.8,92.1,0.0,197.0 SURF_ID='A05' /
&OBST XB=-208.1,-178.9,129.2,100.5,0.0,178.0 SURF_ID='A05' /
&OBST XB=-178.9,-149.6,137.6,108.8,0.0,161.0 SURF_ID='A05' /
&OBST XB=-149.6,-120.4,145.9,117.2,0.0,147.0 SURF_ID='A05' /
&OBST XB=-120.4,-91.1,154.3,125.6,0.0,135.0 SURF_ID='A08' /
&OBST XB=-91.1,-61.8,162.7,134.0,0.0,124.0 SURF_ID='A08' /
&OBST XB=-61.8,-32.6,171.1,142.4,0.0,111.0 SURF_ID='A10' /
&OBST XB=-32.6,-3.3,179.5,150.8,0.0,91.0 SURF_ID='Urban' /
&OBST XB=-3.3,25.9,187.9,159.2,0.0,82.0 SURF_ID='Urban' /
&OBST XB=25.9,55.2,196.3,167.5,0.0,82.0 SURF_ID='Urban' /
&OBST XB=55.2,84.5,204.6,175.9,0.0,75.0 SURF_ID='Urban' /
&OBST XB=84.5,113.7,213.0,184.3,0.0,58.0 SURF_ID='Urban' /
&OBST XB=113.7,143.0,221.4,192.7,0.0,43.0 SURF_ID='A09' /
&OBST XB=143.0,172.2,229.8,201.1,0.0,39.0 SURF_ID='A10' /
&OBST XB=172.2,201.5,238.2,209.5,0.0,34.0 SURF_ID='A10' /
&OBST XB=201.5,230.7,246.6,217.8,0.0,28.0 SURF_ID='A12' /
&OBST XB=230.7,260.0,254.9,226.2,0.0,23.0 SURF_ID='Urban' /
&OBST XB=-814.0,-784.7,-75.6,-104.3,0.0,104.0 SURF_ID='A08' /
&OBST XB=-784.7,-755.5,-67.2,-96.0,0.0,113.0 SURF_ID='A05' /
&OBST XB=-755.5,-726.2,-58.9,-87.6,0.0,128.0 SURF_ID='A05' /
&OBST XB=-726.2,-697.0,-50.5,-79.2,0.0,143.0 SURF_ID='A05' /
&OBST XB=-697.0,-667.7,-42.1,-70.8,0.0,153.0 SURF_ID='A05' /
&OBST XB=-667.7,-638.5,-33.7,-62.4,0.0,153.0 SURF_ID='A05' /
&OBST XB=-638.5,-609.2,-25.3,-54.0,0.0,143.0 SURF_ID='A05' /
&OBST XB=-609.2,-579.9,-16.9,-45.6,0.0,129.0 SURF_ID='A01' /
&OBST XB=-579.9,-550.7,-8.5,-37.3,0.0,127.0 SURF_ID='A05' /
&OBST XB=-550.7,-521.4,-0.2,-28.9,0.0,141.0 SURF_ID='Urban' /
&OBST XB=-521.4,-492.2,8.2,-20.5,0.0,142.0 SURF_ID='Urban' /
&OBST XB=-492.2,-462.9,16.6,-12.1,0.0,135.0 SURF_ID='Urban' /
&OBST XB=-462.9,-433.6,25.0,-3.7,0.0,133.0 SURF_ID='Urban' /
&OBST XB=-433.6,-404.4,33.4,4.7,0.0,148.0 SURF_ID='Urban' /
&OBST XB=-404.4,-375.1,41.8,13.0,0.0,161.0 SURF_ID='A05' /
&OBST XB=-375.1,-345.9,50.1,21.4,0.0,180.0 SURF_ID='A02' /
&OBST XB=-345.9,-316.6,58.5,29.8,0.0,198.0 SURF_ID='A02' /
&OBST XB=-316.6,-287.4,66.9,38.2,0.0,214.0 SURF_ID='A02' /
&OBST XB=-287.4,-258.1,75.3,46.6,0.0,225.0 SURF_ID='A05' /
&OBST XB=-258.1,-228.8,83.7,55.0,0.0,219.0 SURF_ID='A05' /
&OBST XB=-228.8,-199.6,92.1,63.4,0.0,203.0 SURF_ID='A05' /
&OBST XB=-199.6,-170.3,100.5,71.7,0.0,182.0 SURF_ID='A05' /
&OBST XB=-170.3,-141.1,108.8,80.1,0.0,163.0 SURF_ID='A05' /
&OBST XB=-141.1,-111.8,117.2,88.5,0.0,151.0 SURF_ID='A05' /
&OBST XB=-111.8,-82.5,125.6,96.9,0.0,137.0 SURF_ID='A01' /
&OBST XB=-82.5,-53.3,134.0,105.3,0.0,124.0 SURF_ID='A05' /
&OBST XB=-53.3,-24.0,142.4,113.7,0.0,109.0 SURF_ID='A05' /
&OBST XB=-24.0,5.2,150.8,122.0,0.0,96.0 SURF_ID='A05' /
&OBST XB=5.2,34.5,159.2,130.4,0.0,85.0 SURF_ID='Urban' /
&OBST XB=34.5,63.7,167.5,138.8,0.0,82.0 SURF_ID='Urban' /
&OBST XB=63.7,93.0,175.9,147.2,0.0,80.0 SURF_ID='Urban' /
&OBST XB=93.0,122.3,184.3,155.6,0.0,69.0 SURF_ID='Urban' /
&OBST XB=122.3,151.5,192.7,164.0,0.0,51.0 SURF_ID='A08' /
&OBST XB=151.5,180.8,201.1,172.4,0.0,44.0 SURF_ID='A09' /
&OBST XB=180.8,210.0,209.5,180.7,0.0,38.0 SURF_ID='A09' /
&OBST XB=210.0,239.3,217.8,189.1,0.0,31.0 SURF_ID='A09' /
&OBST XB=239.3,268.6,226.2,197.5,0.0,27.0 SURF_ID='A12' /
&OBST XB=-805.5,-776.2,-104.3,-133.1,0.0,97.0 SURF_ID='A10' /
&OBST XB=-776.2,-746.9,-96.0,-124.7,0.0,112.0 SURF_ID='A05' /
&OBST XB=-746.9,-717.7,-87.6,-116.3,0.0,128.0 SURF_ID='A05' /
&OBST XB=-717.7,-688.4,-79.2,-107.9,0.0,140.0 SURF_ID='A05' /
&OBST XB=-688.4,-659.2,-70.8,-99.5,0.0,145.0 SURF_ID='A05' /
&OBST XB=-659.2,-629.9,-62.4,-91.1,0.0,140.0 SURF_ID='A05' /
&OBST XB=-629.9,-600.6,-54.0,-82.8,0.0,127.0 SURF_ID='A05' /
&OBST XB=-600.6,-571.4,-45.6,-74.4,0.0,110.0 SURF_ID='A05' /
&OBST XB=-571.4,-542.1,-37.3,-66.0,0.0,113.0 SURF_ID='A05' /
&OBST XB=-542.1,-512.9,-28.9,-57.6,0.0,124.0 SURF_ID='A05' /
&OBST XB=-512.9,-483.6,-20.5,-49.2,0.0,123.0 SURF_ID='A01' /
&OBST XB=-483.6,-454.4,-12.1,-40.8,0.0,113.0 SURF_ID='Urban' /
&OBST XB=-454.4,-425.1,-3.7,-32.4,0.0,122.0 SURF_ID='A05' /
&OBST XB=-425.1,-395.8,4.7,-24.1,0.0,141.0 SURF_ID='Urban' /
&OBST XB=-395.8,-366.6,13.0,-15.7,0.0,159.0 SURF_ID='Urban' /
&OBST XB=-366.6,-337.3,21.4,-7.3,0.0,170.0 SURF_ID='Urban' /
&OBST XB=-337.3,-308.1,29.8,1.1,0.0,188.0 SURF_ID='A02' /
&OBST XB=-308.1,-278.8,38.2,9.5,0.0,205.0 SURF_ID='A02' /
&OBST XB=-278.8,-249.5,46.6,17.9,0.0,219.0 SURF_ID='A02' /
&OBST XB=-249.5,-220.3,55.0,26.2,0.0,221.0 SURF_ID='A05' /
&OBST XB=-220.3,-191.0,63.4,34.6,0.0,209.0 SURF_ID='A05' /
&OBST XB=-191.0,-161.8,71.7,43.0,0.0,190.0 SURF_ID='A05' /
&OBST XB=-161.8,-132.5,80.1,51.4,0.0,171.0 SURF_ID='A05' /
&OBST XB=-132.5,-103.3,88.5,59.8,0.0,155.0 SURF_ID='A05' /
&OBST XB=-103.3,-74.0,96.9,68.2,0.0,140.0 SURF_ID='A05' /
&OBST XB=-74.0,-44.7,105.3,76.6,0.0,126.0 SURF_ID='A05' /
&OBST XB=-44.7,-15.5,113.7,84.9,0.0,114.0 SURF_ID='A05' /
&OBST XB=-15.5,13.8,122.0,93.3,0.0,101.0 SURF_ID='A05' /
&OBST XB=13.8,43.0,130.4,101.7,0.0,89.0 SURF_ID='Urban' /
&OBST XB=43.0,72.3,138.8,110.1,0.0,83.0 SURF_ID='Urban' /
&OBST XB=72.3,101.6,147.2,118.5,0.0,80.0 SURF_ID='Urban' /
&OBST XB=101.6,130.8,155.6,126.9,0.0,76.0 SURF_ID='Urban' /
&OBST XB=130.8,160.1,164.0,135.3,0.0,63.0 SURF_ID='Urban' /
&OBST XB=160.1,189.3,172.4,143.6,0.0,53.0 SURF_ID='A08' /
&OBST XB=189.3,218.6,180.7,152.0,0.0,50.0 SURF_ID='A09' /
&OBST XB=218.6,247.9,189.1,160.4,0.0,43.0 SURF_ID='A12' /
&OBST XB=247.9,277.1,197.5,168.8,0.0,37.0 SURF_ID='A09' /
&OBST XB=-796.9,-767.6,-133.1,-161.8,0.0,90.0 SURF_ID='A10' /
&OBST XB=-767.6,-738.4,-124.7,-153.4,0.0,107.0 SURF_ID='A05' /
&OBST XB=-738.4,-709.1,-116.3,-145.0,0.0,121.0 SURF_ID='A05' /
&OBST XB=-709.1,-679.9,-107.9,-136.6,0.0,130.0 SURF_ID='A05' /
&OBST XB=-679.9,-650.6,-99.5,-128.2,0.0,133.0 SURF_ID='A05' /
&OBST XB=-650.6,-621.4,-91.1,-119.9,0.0,127.0 SURF_ID='A05' /
&OBST XB=-621.4,-592.1,-82.8,-111.5,0.0,111.0 SURF_ID='A05' /
&OBST XB=-592.1,-562.8,-74.4,-103.1,0.0,93.0 SURF_ID='A05' /
&OBST XB=-562.8,-533.6,-66.0,-94.7,0.0,95.0 SURF_ID='A05' /
&OBST XB=-533.6,-504.3,-57.6,-86.3,0.0,107.0 SURF_ID='A05' /
&OBST XB=-504.3,-475.1,-49.2,-77.9,0.0,99.0 SURF_ID='A05' /
&OBST XB=-475.1,-445.8,-40.8,-69.6,0.0,101.0 SURF_ID='A05' /
&OBST XB=-445.8,-416.5,-32.4,-61.2,0.0,122.0 SURF_ID='A05' /
&OBST XB=-416.5,-387.3,-24.1,-52.8,0.0,139.0 SURF_ID='A05' /
&OBST XB=-387.3,-358.0,-15.7,-44.4,0.0,151.0 SURF_ID='A05' /
&OBST XB=-358.0,-328.8,-7.3,-36.0,0.0,160.0 SURF_ID='Urban' /
&OBST XB=-328.8,-299.5,1.1,-27.6,0.0,180.0 SURF_ID='A02' /
&OBST XB=-299.5,-270.3,9.5,-19.2,0.0,196.0 SURF_ID='A02' /
&OBST XB=-270.3,-241.0,17.9,-10.9,0.0,208.0 SURF_ID='A02' /
&OBST XB=-241.0,-211.7,26.2,-2.5,0.0,218.0 SURF_ID='A02' /
&OBST XB=-211.7,-182.5,34.6,5.9,0.0,214.0 SURF_ID='A05' /
&OBST XB=-182.5,-153.2,43.0,14.3,0.0,198.0 SURF_ID='A05' /
&OBST XB=-153.2,-124.0,51.4,22.7,0.0,180.0 SURF_ID='A05' /
&OBST XB=-124.0,-94.7,59.8,31.1,0.0,164.0 SURF_ID='A05' /
&OBST XB=-94.7,-65.4,68.2,39.5,0.0,147.0 SURF_ID='A05' /
&OBST XB=-65.4,-36.2,76.6,47.8,0.0,130.0 SURF_ID='A05' /
&OBST XB=-36.2,-6.9,84.9,56.2,0.0,115.0 SURF_ID='A05' /
&OBST XB=-6.9,22.3,93.3,64.6,0.0,102.0 SURF_ID='A05' /
&OBST XB=22.3,51.6,101.7,73.0,0.0,90.0 SURF_ID='Urban' /
&OBST XB=51.6,80.9,110.1,81.4,0.0,87.0 SURF_ID='Urban' /
&OBST XB=80.9,110.1,118.5,89.8,0.0,80.0 SURF_ID='Urban' /
&OBST XB=110.1,139.4,126.9,98.1,0.0,79.0 SURF_ID='Urban' /
&OBST XB=139.4,168.6,135.3,106.5,0.0,72.0 SURF_ID='Urban' /
&OBST XB=168.6,197.9,143.6,114.9,0.0,65.0 SURF_ID='A08' /
&OBST XB=197.9,227.1,152.0,123.3,0.0,67.0 SURF_ID='A08' /
&OBST XB=227.1,256.4,160.4,131.7,0.0,62.0 SURF_ID='A08' /
&OBST XB=256.4,285.7,168.8,140.1,0.0,54.0 SURF_ID='A09' /
&OBST XB=-788.4,-759.1,-161.8,-190.5,0.0,79.0 SURF_ID='A08' /
&OBST XB=-759.1,-729.8,-153.4,-182.1,0.0,96.0 SURF_ID='A10' /
&OBST XB=-729.8,-700.6,-145.0,-173.7,0.0,108.0 SURF_ID='A05' /
&OBST XB=-700.6,-671.3,-136.6,-165.3,0.0,116.0 SURF_ID='A05' /
&OBST XB=-671.3,-642.1,-128.2,-157.0,0.0,121.0 SURF_ID='A05' /
&OBST XB=-642.1,-612.8,-119.9,-148.6,0.0,114.0 SURF_ID='A05' /
&OBST XB=-612.8,-583.5,-111.5,-140.2,0.0,97.0 SURF_ID='A05' /
&OBST XB=-583.5,-554.3,-103.1,-131.8,0.0,77.0 SURF_ID='A05' /
&OBST XB=-554.3,-525.0,-94.7,-123.4,0.0,79.0 SURF_ID='A05' /
&OBST XB=-525.0,-495.8,-86.3,-115.0,0.0,88.0 SURF_ID='A05' /
&OBST XB=-495.8,-466.5,-77.9,-106.7,0.0,78.0 SURF_ID='A05' /
&OBST XB=-466.5,-437.3,-69.6,-98.3,0.0,98.0 SURF_ID='A05' /
&OBST XB=-437.3,-408.0,-61.2,-89.9,0.0,116.0 SURF_ID='A05' /
&OBST XB=-408.0,-378.7,-52.8,-81.5,0.0,124.0 SURF_ID='A05' /
&OBST XB=-378.7,-349.5,-44.4,-73.1,0.0,138.0 SURF_ID='A05' /
&OBST XB=-349.5,-320.2,-36.0,-64.7,0.0,156.0 SURF_ID='Urban' /
&OBST XB=-320.2,-291.0,-27.6,-56.3,0.0,172.0 SURF_ID='Urban' /
&OBST XB=-291.0,-261.7,-19.2,-48.0,0.0,187.0 SURF_ID='A02' /
&OBST XB=-261.7,-232.4,-10.9,-39.6,0.0,200.0 SURF_ID='A02' /
&OBST XB=-232.4,-203.2,-2.5,-31.2,0.0,214.0 SURF_ID='A02' /
&OBST XB=-203.2,-173.9,5.9,-22.8,0.0,216.0 SURF_ID='A02' /
&OBST XB=-173.9,-144.7,14.3,-14.4,0.0,200.0 SURF_ID='A05' /
&OBST XB=-144.7,-115.4,22.7,-6.0,0.0,182.0 SURF_ID='A05' /
&OBST XB=-115.4,-86.1,31.1,2.3,0.0,165.0 SURF_ID='A05' /
&OBST XB=-86.1,-56.9,39.5,10.7,0.0,147.0 SURF_ID='A01' /
&OBST XB=-56.9,-27.6,47.8,19.1,0.0,130.0 SURF_ID='A05' /
&OBST XB=-27.6,1.6,56.2,27.5,0.0,117.0 SURF_ID='A01' /
&OBST XB=1.6,30.9,64.6,35.9,0.0,103.0 SURF_ID='A01' /
&OBST XB=30.9,60.1,73.0,44.3,0.0,93.0 SURF_ID='A05' /
&OBST XB=60.1,89.4,81.4,52.7,0.0,86.0 SURF_ID='Urban' /
&OBST XB=89.4,118.7,89.8,61.0,0.0,81.0 SURF_ID='Urban' /
&OBST XB=118.7,147.9,98.1,69.4,0.0,78.0 SURF_ID='Urban' /
&OBST XB=147.9,177.2,106.5,77.8,0.0,78.0 SURF_ID='Urban' /
&OBST XB=177.2,206.4,114.9,86.2,0.0,77.0 SURF_ID='Urban' /
&OBST XB=206.4,235.7,123.3,94.6,0.0,76.0 SURF_ID='Urban' /
&OBST XB=235.7,265.0,131.7,103.0,0.0,75.0 SURF_ID='A02' /
&OBST XB=265.0,294.2,140.1,111.4,0.0,71.0 SURF_ID='A02' /
&OBST XB=-779.8,-750.5,-190.5,-219.2,0.0,68.0 SURF_ID='A12' /
&OBST XB=-750.5,-721.3,-182.1,-210.8,0.0,79.0 SURF_ID='A05' /
&OBST XB=-721.3,-692.0,-173.7,-202.5,0.0,94.0 SURF_ID='A05' /
&OBST XB=-692.0,-662.8,-165.3,-194.1,0.0,103.0 SURF_ID='A05' /
&OBST XB=-662.8,-633.5,-157.0,-185.7,0.0,107.0 SURF_ID='A05' /
&OBST XB=-633.5,-604.3,-148.6,-177.3,0.0,102.0 SURF_ID='A05' /
&OBST XB=-604.3,-575.0,-140.2,-168.9,0.0,84.0 SURF_ID='A05' /
&OBST XB=-575.0,-545.7,-131.8,-160.5,0.0,63.0 SURF_ID='A05' /
&OBST XB=-545.7,-516.5,-123.4,-152.1,0.0,67.0 SURF_ID='A05' /
&OBST XB=-516.5,-487.2,-115.0,-143.8,0.0,70.0 SURF_ID='A05' /
&OBST XB=-487.2,-458.0,-106.7,-135.4,0.0,69.0 SURF_ID='A05' /
&OBST XB=-458.0,-428.7,-98.3,-127.0,0.0,88.0 SURF_ID='A05' /
&OBST XB=-428.7,-399.4,-89.9,-118.6,0.0,101.0 SURF_ID='A05' /
&OBST XB=-399.4,-370.2,-81.5,-110.2,0.0,114.0 SURF_ID='A05' /
&OBST XB=-370.2,-340.9,-73.1,-101.8,0.0,130.0 SURF_ID='A05' /
&OBST XB=-340.9,-311.7,-64.7,-93.5,0.0,152.0 SURF_ID='Ignition' /
&OBST XB=-311.7,-282.4,-56.3,-85.1,0.0,166.0 SURF_ID='Urban' /
&OBST XB=-282.4,-253.1,-48.0,-76.7,0.0,184.0 SURF_ID='A02' /
&OBST XB=-253.1,-223.9,-39.6,-68.3,0.0,199.0 SURF_ID='Burned' /
&OBST XB=-223.9,-194.6,-31.2,-59.9,0.0,213.0 SURF_ID='A02' /
&OBST XB=-194.6,-165.4,-22.8,-51.5,0.0,211.0 SURF_ID='A02' /
&OBST XB=-165.4,-136.1,-14.4,-43.1,0.0,194.0 SURF_ID='A02' /
&OBST XB=-136.1,-106.9,-6.0,-34.8,0.0,175.0 SURF_ID='A05' /
&OBST XB=-106.9,-77.6,2.3,-26.4,0.0,156.0 SURF_ID='A05' /
&OBST XB=-77.6,-48.3,10.7,-18.0,0.0,141.0 SURF_ID='A05' /
&OBST XB=-48.3,-19.1,19.1,-9.6,0.0,125.0 SURF_ID='A05' /
&OBST XB=-19.1,10.2,27.5,-1.2,0.0,117.0 SURF_ID='A05' /
&OBST XB=10.2,39.4,35.9,7.2,0.0,105.0 SURF_ID='A01' /
&OBST XB=39.4,68.7,44.3,15.6,0.0,100.0 SURF_ID='Urban' /
&OBST XB=68.7,98.0,52.7,23.9,0.0,94.0 SURF_ID='Urban' /
&OBST XB=98.0,127.2,61.0,32.3,0.0,86.0 SURF_ID='A05' /
&OBST XB=127.2,156.5,69.4,40.7,0.0,79.0 SURF_ID='Urban' /
&OBST XB=156.5,185.7,77.8,49.1,0.0,77.0 SURF_ID='Urban' /
&OBST XB=185.7,215.0,86.2,57.5,0.0,77.0 SURF_ID='Urban' /