!!! Generated by qgis2fds <0.91> on QGIS <3.22.2-Biaowiea>
!!! QGIS file: <...cation/tests/test_golden_gate_local/golden_gate_local.qgs>
!!! Date: <sab, 15 gen 2022, 08:40:23>
! Selected UTM CRS: <WGS 84 / UTM zone 10N>
! Domain origin: <545409.6, 4187342.0>
!   <http://www.openstreetmap.org/?mlat=37.83237143343951&mlon=-122.48396425386197&zoom=12>
! Domain extent: <544771.5,4186832.4 : 545657.3,4187488.1>
! DEM layer: <US_DEM2016_local> with 30.2m resolution
! Landuse layer: <US_200F13_20_local>
! Fire layer: <fire>
! Landuse type file: <...ation/tests/test_golden_gate_local/./Landfire.gov_F13.csv>
! Wind file: <...sfds.verification/tests/test_golden_gate_local/./wind.csv>

&HEAD CHID='golden_gate_local' TITLE='Description of golden_gate_local' /

! MISC LEVEL_SET_MODE parameter
! 1: Wind not affected by the terrain. No fire.
! 2: Wind field established over the terrain, then frozen. No fire.
! 3: Wind field following the terrain, no fire.
! 4: Wind and fire fully-coupled.

&MISC ORIGIN_LAT=37.8323714
      ORIGIN_LON=-122.4839643
      NORTH_BEARING=0.
      TERRAIN_IMAGE='golden_gate_local_tex.png'
      LEVEL_SET_MODE=1 /

&TIME T_END=0. /

! Example REAC, used when LEVEL_SET_MODE=4
!REAC ID='Wood' SOOT_YIELD=0.02 O=2.5 C=3.4 H=6.2
      HEAT_OF_COMBUSTION=17700. /


! Domain and its boundary conditions
! 2 x 2 meshes of 443m x 328m x 354m size and 49280 cells each
&MULT ID='Meshes'
      DX=442.9 I_LOWER=0 I_UPPER=1
      DY=327.8 J_LOWER=0 J_UPPER=1 /
&MESH IJK=44,32,35 MULT_ID='Meshes'
      XB=-638.1,-195.2,-509.6,-181.7,-2.5,351.5 /
&VENT ID='Domain BC XMIN' DB='XMIN' SURF_ID='OPEN' /
&VENT ID='Domain BC XMAX' DB='XMAX' SURF_ID='OPEN' /
&VENT ID='Domain BC YMIN' DB='YMIN' SURF_ID='OPEN' /
&VENT ID='Domain BC YMAX' DB='YMAX' SURF_ID='OPEN' /
&VENT ID='Domain BC ZMAX' DB='ZMAX' SURF_ID='OPEN' /

! Landuse boundary conditions
&SURF ID='NA' RGB=255,255,255 /
&SURF ID='A01' RGB=255,254,212 VEG_LSET_FUEL_INDEX=1 /
&SURF ID='A02' RGB=255,253,102 VEG_LSET_FUEL_INDEX=2 /
&SURF ID='A03' RGB=236,212,99 VEG_LSET_FUEL_INDEX=3 /
&SURF ID='A04' RGB=254,193,119 VEG_LSET_FUEL_INDEX=4 /
&SURF ID='A05' RGB=249,197,92 VEG_LSET_FUEL_INDEX=5 /
&SURF ID='A06' RGB=217,196,152 VEG_LSET_FUEL_INDEX=6 /
&SURF ID='A07' RGB=170,155,127 VEG_LSET_FUEL_INDEX=7 /
&SURF ID='A08' RGB=229,253,214 VEG_LSET_FUEL_INDEX=8 /
&SURF ID='A09' RGB=162,191,90 VEG_LSET_FUEL_INDEX=9 /
&SURF ID='A10' RGB=114,154,85 VEG_LSET_FUEL_INDEX=10 /
&SURF ID='A11' RGB=235,212,253 VEG_LSET_FUEL_INDEX=11 /
&SURF ID='A12' RGB=163,177,243 VEG_LSET_FUEL_INDEX=12 /
&SURF ID='A13' RGB=0,0,0 VEG_LSET_FUEL_INDEX=13 /
&SURF ID='Urban' RGB=186,119,80 /
&SURF ID='Snow-Ice' RGB=234,234,234 /
&SURF ID='Agricolture' RGB=253,242,242 /
&SURF ID='Water' RGB=137,183,221 /
&SURF ID='Barren' RGB=133,153,156 /
&SURF ID='Ignition' VEG_LSET_IGNITE_TIME=0. COLOR='RED' /
&SURF ID='Burned' RGB=20,20,20 /

! Output quantities
&SLCF AGL_SLICE=5. QUANTITY='LEVEL SET VALUE' /
&SLCF AGL_SLICE=5. QUANTITY='TEMPERATURE' VECTOR=T /
&SLCF PBX=0.0 QUANTITY='TEMPERATURE' VECTOR=T /
&SLCF PBY=0.0 QUANTITY='TEMPERATURE' VECTOR=T /

! Output for wind rose at origin
&DEVC ID='Origin_UV' XYZ=0.,0.,350.5 QUANTITY='U-VELOCITY' /
&DEVC ID='Origin_VV' XYZ=0.,0.,350.5 QUANTITY='V-VELOCITY' /
&DEVC ID='Origin_WV' XYZ=0.,0.,350.5 QUANTITY='W-VELOCITY' /

! Wind
&WIND SPEED=1., RAMP_SPEED_T='ws', RAMP_DIRECTION_T='wd' /
&RAMP ID='ws', T=0.0, F=2.0 /
&RAMP ID='ws', T=180.0, F=5.0 /
&RAMP ID='ws', T=360.0, F=10.0 /
&RAMP ID='wd', T=0.0, F=45.0 /
&RAMP ID='wd', T=180.0, F=90.0 /
&RAMP ID='wd', T=360.0, F=135.0 /

! Terrain (1254 verts, 2368 faces)
&GEOM ID='Terrain'
      SURF_ID='NA','A01','A02','A03','A04','A05','A06','A07','A08','A09','A10','A11','A12','A13','Urban','Snow-Ice','Agricolture','Water','Barren','Ignition','Burned'
      BINARY_FILE='golden_gate_local_geom_terrain.bingeom'
      IS_TERRAIN=T EXTEND_TERRAIN=F /

&TAIL /
