! Generated by qgis2fds <0.90> on QGIS <3.22.2-Biaowiea>
! QGIS file: <...isfds.verification/tests/test_cern_meyrin/cern_meyrin.qgs>
! Date: <mer, 29 dic 2021, 10:07:23>
! Selected UTM CRS: <WGS 84 / UTM zone 32N>
! Domain origin: <272445.5, 5124167.4>
!   <http://www.openstreetmap.org/?mlat=46.2329766885&mlon=6.048780648499999&zoom=12>
! Domain extent: <272383.9,5124111.5 : 272507.0,5124223.3>
! DEM layer: <MN_Surface_2017_GRID> with 1.0m resolution
! Landuse layer: <none>
! Fire layer: <none>
! Landuse type file: <none>
! Wind file: <none>

&HEAD CHID='cern_meyrin_geom' TITLE='Description of cern_meyrin_geom' /

! MISC LEVEL_SET_MODE parameter
! 1: Wind not affected by the terrain. No fire.
! 2: Wind field established over the terrain, then frozen. No fire.
! 3: Wind field following the terrain, no fire.
! 4: Wind and fire fully-coupled.

&MISC ORIGIN_LAT=46.2329767
      ORIGIN_LON=6.0487806
      NORTH_BEARING=0.
      TERRAIN_IMAGE='cern_meyrin_tex.png'
      LEVEL_SET_MODE=4 /

&TIME T_END=0. /

! Example REAC, used when LEVEL_SET_MODE=4
&REAC ID='Wood' SOOT_YIELD=0.02 O=2.5 C=3.4 H=6.2
      HEAT_OF_COMBUSTION=17700. /

! Pressure solver
!PRES VELOCITY_TOLERANCE=1.E-6 MAX_PRESSURE_ITERATIONS=100 /

! Radiation solver
!RADI RADIATION=F /

! Domain and its boundary conditions
! 2 x 2 meshes of 62m x 56m x 31m size and 104005 cells each
&MULT ID='Meshes'
      DX=61.534 I_LOWER=0 I_UPPER=1
      DY=55.927 J_LOWER=0 J_UPPER=1 /
&MESH IJK=61,55,31 MULT_ID='Meshes'
      XB=-61.535,-0.001,-55.927,0.000,433.200,464.599 /
&VENT ID='Domain BC XMIN' DB='XMIN' SURF_ID='OPEN' /
&VENT ID='Domain BC XMAX' DB='XMAX' SURF_ID='OPEN' /
&VENT ID='Domain BC YMIN' DB='YMIN' SURF_ID='OPEN' /
&VENT ID='Domain BC YMAX' DB='YMAX' SURF_ID='OPEN' /
&VENT ID='Domain BC ZMAX' DB='ZMAX' SURF_ID='OPEN' /

! Landuse boundary conditions


! Output quantities
&SLCF AGL_SLICE=1. QUANTITY='LEVEL SET VALUE' /
&SLCF AGL_SLICE=2. QUANTITY='VISIBILITY' /
&SLCF AGL_SLICE=2. QUANTITY='TEMPERATURE' VECTOR=T /
&SLCF AGL_SLICE=12. QUANTITY='VISIBILITY' /
&SLCF AGL_SLICE=12. QUANTITY='TEMPERATURE' VECTOR=T /
&SLCF PBX=0.000 QUANTITY='TEMPERATURE' VECTOR=T /
&SLCF PBY=0.000 QUANTITY='TEMPERATURE' VECTOR=T /

! Output for wind rose at origin
&DEVC ID='Origin_UV' XYZ=0.,0.,463.599 QUANTITY='U-VELOCITY' /
&DEVC ID='Origin_VV' XYZ=0.,0.,463.599 QUANTITY='V-VELOCITY' /
&DEVC ID='Origin_WV' XYZ=0.,0.,463.599 QUANTITY='W-VELOCITY' /

! Wind
&WIND SPEED=1., RAMP_SPEED_T='ws', RAMP_DIRECTION_T='wd' /
! Example ramps for wind speed and direction
&RAMP ID='ws', T=   0, F= 10. /
&RAMP ID='ws', T= 600, F= 10. /
&RAMP ID='ws', T=1200, F= 20. /
&RAMP ID='wd', T=   0, F=315. /
&RAMP ID='wd', T= 600, F=270. /
&RAMP ID='wd', T=1200, F=360. /

! Terrain (14976 verts, 29464 faces)
&GEOM ID='Terrain'
      SURF_ID='INERT'
      BINARY_FILE='cern_meyrin_terrain.bingeom'
      IS_TERRAIN=T EXTEND_TERRAIN=F /

&TAIL /
