! Generated by qgis2fds 1.0.2 on QGIS 3.28.8-Firenze
! QGIS file: tests/test_cern_meyrin/cern_meyrin.qgs
! Date: Fri, 21 Jul 2023, 15:43:41

Selected UTM CRS: WGS 84 / UTM zone 32N
Domain origin: 272445.5E 5124167.4N
  <http://www.openstreetmap.org/?mlat=46.2329766885&mlon=6.048780648499999&zoom=12>
Domain extent: 272383.9-272507.0E 5124111.5-5124223.4N

Desired resolution: 1.0m
DEM layer: dem_layer
Landuse layer: none
Landuse type file: none
Fire layer: none
FDS DEVCs layer: FIXME
Wind file: none

&HEAD CHID='cern_meyrin_geom' TITLE='Description of cern_meyrin_geom' /

MISC LEVEL_SET_MODE parameter
 1: Wind not affected by the terrain. No fire.
 2: Wind field established over the terrain, then frozen. No fire.
 3: Wind field following the terrain, no fire.
 4: Wind and fire fully-coupled.

&MISC ORIGIN_LAT=46.2329767
      ORIGIN_LON=6.0487806
      NORTH_BEARING=0.
      TERRAIN_IMAGE='cern_meyrin_geom_tex.png'
      LEVEL_SET_MODE=1 
      THICKEN_OBSTRUCTIONS=T /

&TIME T_END=0. /

Example REAC, used when LEVEL_SET_MODE=4
_REAC ID='Wood' SOOT_YIELD=0.005 O=2.5 C=3.4 H=6.2
      HEAT_OF_COMBUSTION=17700. /

Domain and its boundary conditions
2 · 2 meshes of 60.5m · 54.9m · 28.2m size and 90720 cells each
&MULT ID='Meshes'
      DX=60.54 I_LOWER=0 I_UPPER=1
      DY=54.93 J_LOWER=0 J_UPPER=1 /
&MESH IJK=60,54,28 MULT_ID='Meshes'
      XB=-60.54,-0.00,-54.88,0.05,435.17,463.39 /
&VENT ID='Domain BC XMIN' DB='XMIN' SURF_ID='OPEN' /
&VENT ID='Domain BC XMAX' DB='XMAX' SURF_ID='OPEN' /
&VENT ID='Domain BC YMIN' DB='YMIN' SURF_ID='OPEN' /
&VENT ID='Domain BC YMAX' DB='YMAX' SURF_ID='OPEN' /
&VENT ID='Domain BC ZMAX' DB='ZMAX' SURF_ID='OPEN' /

Wind rose at domain origin
&DEVC ID='Origin_UV' XYZ=0.,0.,463.29 QUANTITY='U-VELOCITY' /
&DEVC ID='Origin_VV' XYZ=0.,0.,463.29 QUANTITY='V-VELOCITY' /
&DEVC ID='Origin_WV' XYZ=0.,0.,463.29 QUANTITY='W-VELOCITY' /

Landuse boundary conditions
none

Output quantities
&SLCF AGL_SLICE=5. QUANTITY='LEVEL SET VALUE' /
&SLCF AGL_SLICE=5. QUANTITY='TEMPERATURE' VECTOR=T /
&SLCF PBX=0.00 QUANTITY='TEMPERATURE' VECTOR=T /
&SLCF PBY=0.00 QUANTITY='TEMPERATURE' VECTOR=T /

Wind
&WIND SPEED=1., RAMP_SPEED_T='ws', RAMP_DIRECTION_T='wd' /
! Example ramps for wind speed and direction
&RAMP ID='ws', T=   0, F= 10. /
&RAMP ID='ws', T= 600, F= 10. /
&RAMP ID='ws', T=1200, F= 20. /
&RAMP ID='wd', T=   0, F=315. /
&RAMP ID='wd', T= 600, F=270. /
&RAMP ID='wd', T=1200, F=360. /

Terrain (14125 verts, 27776 faces)
&GEOM ID='Terrain'
      SURF_ID='INERT'
      BINARY_FILE='cern_meyrin_geom_terrain.bingeom'
      IS_TERRAIN=T EXTEND_TERRAIN=F /

&TAIL /
