! Generated by qgis2fds 1.0.2 on QGIS 3.28.8-Firenze
! QGIS file: tests/test_cern_meyrin/cern_meyrin.qgs
! Date: Fri, 21 Jul 2023, 15:43:56

Selected UTM CRS: WGS 84 / UTM zone 32N
Domain origin: 272445.5E 5124167.4N
  <http://www.openstreetmap.org/?mlat=46.2329766885&mlon=6.048780648499999&zoom=12>
Domain extent: 272383.9-272507.0E 5124111.5-5124223.4N

Desired resolution: 1.0m
DEM layer: dem_layer
Landuse layer: none
Landuse type file: none
Fire layer: none
FDS DEVCs layer: FIXME
Wind file: none

&HEAD CHID='cern_meyrin_obst' TITLE='Description of cern_meyrin_obst' /

MISC LEVEL_SET_MODE parameter
 1: Wind not affected by the terrain. No fire.
 2: Wind field established over the terrain, then frozen. No fire.
 3: Wind field following the terrain, no fire.
 4: Wind and fire fully-coupled.

&MISC ORIGIN_LAT=46.2329767
      ORIGIN_LON=6.0487806
      NORTH_BEARING=0.
      TERRAIN_IMAGE='cern_meyrin_obst_tex.png'
      LEVEL_SET_MODE=1 
      THICKEN_OBSTRUCTIONS=T /

&TIME T_END=0. /

Example REAC, used when LEVEL_SET_MODE=4
_REAC ID='Wood' SOOT_YIELD=0.005 O=2.5 C=3.4 H=6.2
      HEAT_OF_COMBUSTION=17700. /

Domain and its boundary conditions
2 · 2 meshes of 60.5m · 54.9m · 28.2m size and 90720 cells each
&MULT ID='Meshes'
      DX=60.54 I_LOWER=0 I_UPPER=1
      DY=54.93 J_LOWER=0 J_UPPER=1 /
&MESH IJK=60,54,28 MULT_ID='Meshes'
      XB=-60.54,-0.00,-54.88,0.05,435.17,463.39 /
&VENT ID='Domain BC XMIN' DB='XMIN' SURF_ID='OPEN' /
&VENT ID='Domain BC XMAX' DB='XMAX' SURF_ID='OPEN' /
&VENT ID='Domain BC YMIN' DB='YMIN' SURF_ID='OPEN' /
&VENT ID='Domain BC YMAX' DB='YMAX' SURF_ID='OPEN' /
&VENT ID='Domain BC ZMAX' DB='ZMAX' SURF_ID='OPEN' /

Wind rose at domain origin
&DEVC ID='Origin_UV' XYZ=0.,0.,463.29 QUANTITY='U-VELOCITY' /
&DEVC ID='Origin_VV' XYZ=0.,0.,463.29 QUANTITY='V-VELOCITY' /
&DEVC ID='Origin_WV' XYZ=0.,0.,463.29 QUANTITY='W-VELOCITY' /

Landuse boundary conditions
none

Output quantities
&SLCF AGL_SLICE=5. QUANTITY='LEVEL SET VALUE' /
&SLCF AGL_SLICE=5. QUANTITY='TEMPERATURE' VECTOR=T /
&SLCF PBX=0.00 QUANTITY='TEMPERATURE' VECTOR=T /
&SLCF PBY=0.00 QUANTITY='TEMPERATURE' VECTOR=T /

Wind
&WIND SPEED=1., RAMP_SPEED_T='ws', RAMP_DIRECTION_T='wd' /
! Example ramps for wind speed and direction
&RAMP ID='ws', T=   0, F= 10. /
&RAMP ID='ws', T= 600, F= 10. /
&RAMP ID='ws', T=1200, F= 20. /
&RAMP ID='wd', T=   0, F=315. /
&RAMP ID='wd', T= 600, F=270. /
&RAMP ID='wd', T=1200, F=360. /

Terrain (13888 OBSTs)
&OBST XB=-61.54,-60.55,54.98,55.98,435.17,443.13 SURF_ID='INERT' /
&OBST XB=-60.55,-59.55,54.98,55.98,435.17,442.92 SURF_ID='INERT' /
&OBST XB=-59.55,-58.56,54.98,55.98,435.17,442.90 SURF_ID='INERT' /
&OBST XB=-58.56,-57.57,54.98,55.98,435.17,441.65 SURF_ID='INERT' /
&OBST XB=-57.57,-56.58,54.98,55.98,435.17,441.29 SURF_ID='INERT' /
&OBST XB=-56.58,-55.58,54.98,55.98,435.17,441.25 SURF_ID='INERT' /
&OBST XB=-55.58,-54.59,54.98,55.98,435.17,441.22 SURF_ID='INERT' /
&OBST XB=-54.59,-53.60,54.98,55.98,435.17,441.17 SURF_ID='INERT' /
&OBST XB=-53.60,-52.61,54.98,55.98,435.17,441.14 SURF_ID='INERT' /
&OBST XB=-52.61,-51.61,54.98,55.98,435.17,441.32 SURF_ID='INERT' /
&OBST XB=-51.61,-50.62,54.98,55.98,435.17,441.36 SURF_ID='INERT' /
&OBST XB=-50.62,-49.63,54.98,55.98,435.17,441.41 SURF_ID='INERT' /
&OBST XB=-49.63,-48.64,54.98,55.98,435.17,441.53 SURF_ID='INERT' /
&OBST XB=-48.64,-47.64,54.98,55.98,435.17,441.78 SURF_ID='INERT' /
&OBST XB=-47.64,-46.65,54.98,55.98,435.17,442.08 SURF_ID='INERT' /
&OBST XB=-46.65,-45.66,54.98,55.98,435.17,441.95 SURF_ID='INERT' /
&OBST XB=-45.66,-44.67,54.98,55.98,435.17,441.81 SURF_ID='INERT' /
&OBST XB=-44.67,-43.67,54.98,55.98,435.17,441.57 SURF_ID='INERT' /
&OBST XB=-43.67,-42.68,54.98,55.98,435.17,441.35 SURF_ID='INERT' /
&OBST XB=-42.68,-41.69,54.98,55.98,435.17,441.03 SURF_ID='INERT' /
&OBST XB=-41.69,-40.70,54.98,55.98,435.17,440.76 SURF_ID='INERT' /
&OBST XB=-40.70,-39.70,54.98,55.98,435.17,440.50 SURF_ID='INERT' /
&OBST XB=-39.70,-38.71,54.98,55.98,435.17,440.45 SURF_ID='INERT' /
&OBST XB=-38.71,-37.72,54.98,55.98,435.17,440.42 SURF_ID='INERT' /
&OBST XB=-37.72,-36.73,54.98,55.98,435.17,440.34 SURF_ID='INERT' /
&OBST XB=-36.73,-35.73,54.98,55.98,435.17,440.24 SURF_ID='INERT' /
&OBST XB=-35.73,-34.74,54.98,55.98,435.17,440.06 SURF_ID='INERT' /
&OBST XB=-34.74,-33.75,54.98,55.98,435.17,439.97 SURF_ID='INERT' /
&OBST XB=-33.75,-32.76,54.98,55.98,435.17,439.96 SURF_ID='INERT' /
&OBST XB=-32.76,-31.76,54.98,55.98,435.17,439.90 SURF_ID='INERT' /
&OBST XB=-31.76,-30.77,54.98,55.98,435.17,439.88 SURF_ID='INERT' /
&OBST XB=-30.77,-29.78,54.98,55.98,435.17,439.84 SURF_ID='INERT' /
&OBST XB=-29.78,-28.79,54.98,55.98,435.17,439.81 SURF_ID='INERT' /
&OBST XB=-28.79,-27.79,54.98,55.98,435.17,439.77 SURF_ID='INERT' /
&OBST XB=-27.79,-26.80,54.98,55.98,435.17,439.74 SURF_ID='INERT' /
&OBST XB=-26.80,-25.81,54.98,55.98,435.17,439.70 SURF_ID='INERT' /
&OBST XB=-25.81,-24.82,54.98,55.98,435.17,439.64 SURF_ID='INERT' /
&OBST XB=-24.82,-23.82,54.98,55.98,435.17,439.60 SURF_ID='INERT' /
&OBST XB=-23.82,-22.83,54.98,55.98,435.17,439.59 SURF_ID='INERT' /
&OBST XB=-22.83,-21.84,54.98,55.98,435.17,439.56 SURF_ID='INERT' /
&OBST XB=-21.84,-20.85,54.98,55.98,435.17,439.52 SURF_ID='INERT' /
&OBST XB=-20.85,-19.85,54.98,55.98,435.17,439.49 SURF_ID='INERT' /
&OBST XB=-19.85,-18.86,54.98,55.98,435.17,439.47 SURF_ID='INERT' /
&OBST XB=-18.86,-17.87,54.98,55.98,435.17,439.49 SURF_ID='INERT' /
&OBST XB=-17.87,-16.88,54.98,55.98,435.17,439.55 SURF_ID='INERT' /
&OBST XB=-16.88,-15.88,54.98,55.98,435.17,439.51 SURF_ID='INERT' /
&OBST XB=-15.88,-14.89,54.98,55.98,435.17,439.67 SURF_ID='INERT' /
&OBST XB=-14.89,-13.90,54.98,55.98,435.17,439.72 SURF_ID='INERT' /
&OBST XB=-13.90,-12.91,54.98,55.98,435.17,439.78 SURF_ID='INERT' /
&OBST XB=-12.91,-11.91,54.98,55.98,435.17,439.81 SURF_ID='INERT' /
&OBST XB=-11.91,-10.92,54.98,55.98,435.17,439.81 SURF_ID='INERT' /
&OBST XB=-10.92,-9.93,54.98,55.98,435.17,439.80 SURF_ID='INERT' /
&OBST XB=-9.93,-8.94,54.98,55.98,435.17,439.81 SURF_ID='INERT' /
&OBST XB=-8.94,-7.94,54.98,55.98,435.17,440.36 SURF_ID='INERT' /
&OBST XB=-7.94,-6.95,54.98,55.98,435.17,440.61 SURF_ID='INERT' /
&OBST XB=-6.95,-5.96,54.98,55.98,435.17,440.91 SURF_ID='INERT' /
&OBST XB=-5.96,-4.97,54.98,55.98,435.17,440.99 SURF_ID='INERT' /
&OBST XB=-4.97,-3.97,54.98,55.98,435.17,441.02 SURF_ID='INERT' /
&OBST XB=-3.97,-2.98,54.98,55.98,435.17,441.06 SURF_ID='INERT' /
&OBST XB=-2.98,-1.99,54.98,55.98,435.17,441.04 SURF_ID='INERT' /
&OBST XB=-1.99,-1.00,54.98,55.98,435.17,441.05 SURF_ID='INERT' /
&OBST XB=-1.00,-0.00,54.98,55.98,435.17,444.00 SURF_ID='INERT' /
&OBST XB=-0.00,0.99,54.98,55.98,435.17,443.91 SURF_ID='INERT' /
&OBST XB=0.99,1.98,54.98,55.98,435.17,443.80 SURF_ID='INERT' /
&OBST XB=1.98,2.97,54.98,55.98,435.17,444.00 SURF_ID='INERT' /
&OBST XB=2.97,3.97,54.98,55.98,435.17,444.06 SURF_ID='INERT' /
&OBST XB=3.97,4.96,54.98,55.98,435.17,442.73 SURF_ID='INERT' /
&OBST XB=4.96,5.95,54.98,55.98,435.17,441.22 SURF_ID='INERT' /
&OBST XB=5.95,6.94,54.98,55.98,435.17,442.24 SURF_ID='INERT' /
&OBST XB=6.94,7.94,54.98,55.98,435.17,442.08 SURF_ID='INERT' /
&OBST XB=7.94,8.93,54.98,55.98,435.17,442.24 SURF_ID='INERT' /
&OBST XB=8.93,9.92,54.98,55.98,435.17,442.38 SURF_ID='INERT' /
&OBST XB=9.92,10.91,54.98,55.98,435.17,441.19 SURF_ID='INERT' /
&OBST XB=10.91,11.91,54.98,55.98,435.17,441.19 SURF_ID='INERT' /
&OBST XB=11.91,12.90,54.98,55.98,435.17,441.13 SURF_ID='INERT' /
&OBST XB=12.90,13.89,54.98,55.98,435.17,441.13 SURF_ID='INERT' /
&OBST XB=13.89,14.88,54.98,55.98,435.17,441.12 SURF_ID='INERT' /
&OBST XB=14.88,15.88,54.98,55.98,435.17,439.65 SURF_ID='INERT' /
&OBST XB=15.88,16.87,54.98,55.98,435.17,439.43 SURF_ID='INERT' /
&OBST XB=16.87,17.86,54.98,55.98,435.17,439.38 SURF_ID='INERT' /
&OBST XB=17.86,18.85,54.98,55.98,435.17,439.36 SURF_ID='INERT' /
&OBST XB=18.85,19.85,54.98,55.98,435.17,439.36 SURF_ID='INERT' /
&OBST XB=19.85,20.84,54.98,55.98,435.17,438.79 SURF_ID='INERT' /
&OBST XB=20.84,21.83,54.98,55.98,435.17,435.88 SURF_ID='INERT' /
&OBST XB=21.83,22.82,54.98,55.98,435.17,435.70 SURF_ID='INERT' /
&OBST XB=22.82,23.82,54.98,55.98,435.17,435.68 SURF_ID='INERT' /
&OBST XB=23.82,24.81,54.98,55.98,435.17,435.67 SURF_ID='INERT' /
&OBST XB=24.81,25.80,54.98,55.98,435.17,435.70 SURF_ID='INERT' /
&OBST XB=25.80,26.79,54.98,55.98,435.17,435.72 SURF_ID='INERT' /
&OBST XB=26.79,27.79,54.98,55.98,435.17,435.73 SURF_ID='INERT' /
&OBST XB=27.79,28.78,54.98,55.98,435.17,435.73 SURF_ID='INERT' /
&OBST XB=28.78,29.77,54.98,55.98,435.17,436.03 SURF_ID='INERT' /
&OBST XB=29.77,30.76,54.98,55.98,435.17,436.03 SURF_ID='INERT' /
&OBST XB=30.76,31.76,54.98,55.98,435.17,435.99 SURF_ID='INERT' /
&OBST XB=31.76,32.75,54.98,55.98,435.17,435.98 SURF_ID='INERT' /
&OBST XB=32.75,33.74,54.98,55.98,435.17,435.94 SURF_ID='INERT' /
&OBST XB=33.74,34.73,54.98,55.98,435.17,435.87 SURF_ID='INERT' /
&OBST XB=34.73,35.73,54.98,55.98,435.17,435.85 SURF_ID='INERT' /
&OBST XB=35.73,36.72,54.98,55.98,435.17,435.83 SURF_ID='INERT' /
&OBST XB=36.72,37.71,54.98,55.98,435.17,435.77 SURF_ID='INERT' /
&OBST XB=37.71,38.70,54.98,55.98,435.17,435.68 SURF_ID='INERT' /
&OBST XB=38.70,39.70,54.98,55.98,435.17,435.61 SURF_ID='INERT' /
&OBST XB=39.70,40.69,54.98,55.98,435.17,435.54 SURF_ID='INERT' /
&OBST XB=40.69,41.68,54.98,55.98,435.17,435.52 SURF_ID='INERT' /
&OBST XB=41.68,42.67,54.98,55.98,435.17,435.47 SURF_ID='INERT' /
&OBST XB=42.67,43.67,54.98,55.98,435.17,435.44 SURF_ID='INERT' /
&OBST XB=43.67,44.66,54.98,55.98,435.17,435.42 SURF_ID='INERT' /
&OBST XB=44.66,45.65,54.98,55.98,435.17,435.40 SURF_ID='INERT' /
&OBST XB=45.65,46.64,54.98,55.98,435.17,435.39 SURF_ID='INERT' /
&OBST XB=46.64,47.64,54.98,55.98,435.17,436.75 SURF_ID='INERT' /
&OBST XB=47.64,48.63,54.98,55.98,435.17,439.40 SURF_ID='INERT' /
&OBST XB=48.63,49.62,54.98,55.98,435.17,440.93 SURF_ID='INERT' /
&OBST XB=49.62,50.61,54.98,55.98,435.17,440.84 SURF_ID='INERT' /
&OBST XB=50.61,51.61,54.98,55.98,435.17,440.81 SURF_ID='INERT' /
&OBST XB=51.61,52.60,54.98,55.98,435.17,440.79 SURF_ID='INERT' /
&OBST XB=52.60,53.59,54.98,55.98,435.17,440.78 SURF_ID='INERT' /
&OBST XB=53.59,54.58,54.98,55.98,435.17,440.76 SURF_ID='INERT' /
&OBST XB=54.58,55.58,54.98,55.98,435.17,440.76 SURF_ID='INERT' /
&OBST XB=55.58,56.57,54.98,55.98,435.17,440.81 SURF_ID='INERT' /
&OBST XB=56.57,57.56,54.98,55.98,435.17,440.91 SURF_ID='INERT' /
&OBST XB=57.56,58.55,54.98,55.98,435.17,440.83 SURF_ID='INERT' /
&OBST XB=58.55,59.55,54.98,55.98,435.17,440.79 SURF_ID='INERT' /
&OBST XB=59.55,60.54,54.98,55.98,435.17,440.82 SURF_ID='INERT' /
&OBST XB=60.54,61.53,54.98,55.98,435.17,440.83 SURF_ID='INERT' /
&OBST XB=-61.54,-60.55,53.98,54.98,435.17,443.08 SURF_ID='INERT' /
&OBST XB=-60.55,-59.55,53.98,54.98,435.17,442.91 SURF_ID='INERT' /
&OBST XB=-59.55,-58.56,53.98,54.98,435.17,443.42 SURF_ID='INERT' /
&OBST XB=-58.56,-57.57,53.98,54.98,435.17,441.38 SURF_ID='INERT' /
&OBST XB=-57.57,-56.58,53.98,54.98,435.17,441.33 SURF_ID='INERT' /
&OBST XB=-56.58,-55.58,53.98,54.98,435.17,441.25 SURF_ID='INERT' /
&OBST XB=-55.58,-54.59,53.98,54.98,435.17,441.24 SURF_ID='INERT' /
&OBST XB=-54.59,-53.60,53.98,54.98,435.17,441.22 SURF_ID='INERT' /
&OBST XB=-53.60,-52.61,53.98,54.98,435.17,441.36 SURF_ID='INERT' /
&OBST XB=-52.61,-51.61,53.98,54.98,435.17,441.44 SURF_ID='INERT' /
&OBST XB=-51.61,-50.62,53.98,54.98,435.17,441.46 SURF_ID='INERT' /
&OBST XB=-50.62,-49.63,53.98,54.98,435.17,441.55 SURF_ID='INERT' /
&OBST XB=-49.63,-48.64,53.98,54.98,435.17,441.81 SURF_ID='INERT' /
&OBST XB=-48.64,-47.64,53.98,54.98,435.17,442.20 SURF_ID='INERT' /
&OBST XB=-47.64,-46.65,53.98,54.98,435.17,442.60 SURF_ID='INERT' /
&OBST XB=-46.65,-45.66,53.98,54.98,435.17,442.58 SURF_ID='INERT' /
&OBST XB=-45.66,-44.67,53.98,54.98,435.17,442.30 SURF_ID='INERT' /
&OBST XB=-44.67,-43.67,53.98,54.98,435.17,442.10 SURF_ID='INERT' /
&OBST XB=-43.67,-42.68,53.98,54.98,435.17,441.83 SURF_ID='INERT' /
&OBST XB=-42.68,-41.69,53.98,54.98,435.17,441.47 SURF_ID='INERT' /
&OBST XB=-41.69,-40.70,53.98,54.98,435.17,441.12 SURF_ID='INERT' /
&OBST XB=-40.70,-39.70,53.98,54.98,435.17,440.79 SURF_ID='INERT' /
&OBST XB=-39.70,-38.71,53.98,54.98,435.17,440.58 SURF_ID='INERT' /
&OBST XB=-38.71,-37.72,53.98,54.98,435.17,440.39 SURF_ID='INERT' /
&OBST XB=-37.72,-36.73,53.98,54.98,435.17,440.32 SURF_ID='INERT' /
&OBST XB=-36.73,-35.73,53.98,54.98,435.17,440.22 SURF_ID='INERT' /
&OBST XB=-35.73,-34.74,53.98,54.98,435.17,440.06 SURF_ID='INERT' /
&OBST XB=-34.74,-33.75,53.98,54.98,435.17,439.98 SURF_ID='INERT' /
&OBST XB=-33.75,-32.76,53.98,54.98,435.17,439.93 SURF_ID='INERT' /
&OBST XB=-32.76,-31.76,53.98,54.98,435.17,439.93 SURF_ID='INERT' /
&OBST XB=-31.76,-30.77,53.98,54.98,435.17,439.89 SURF_ID='INERT' /
&OBST XB=-30.77,-29.78,53.98,54.98,435.17,439.81 SURF_ID='INERT' /
&OBST XB=-29.78,-28.79,53.98,54.98,435.17,439.77 SURF_ID='INERT' /
&OBST XB=-28.79,-27.79,53.98,54.98,435.17,439.74 SURF_ID='INERT' /
&OBST XB=-27.79,-26.80,53.98,54.98,435.17,439.71 SURF_ID='INERT' /
&OBST XB=-26.80,-25.81,53.98,54.98,435.17,439.66 SURF_ID='INERT' /
&OBST XB=-25.81,-24.82,53.98,54.98,435.17,439.63 SURF_ID='INERT' /
&OBST XB=-24.82,-23.82,53.98,54.98,435.17,439.59 SURF_ID='INERT' /
&OBST XB=-23.82,-22.83,53.98,54.98,435.17,439.57 SURF_ID='INERT' /
&OBST XB=-22.83,-21.84,53.98,54.98,435.17,439.54 SURF_ID='INERT' /
&OBST XB=-21.84,-20.85,53.98,54.98,435.17,439.48 SURF_ID='INERT' /
&OBST XB=-20.85,-19.85,53.98,54.98,435.17,439.45 SURF_ID='INERT' /
&OBST XB=-19.85,-18.86,53.98,54.98,435.17,439.44 SURF_ID='INERT' /
&OBST XB=-18.86,-17.87,53.98,54.98,435.17,439.41 SURF_ID='INERT' /
&OBST XB=-17.87,-16.88,53.98,54.98,435.17,439.38 SURF_ID='INERT' /
&OBST XB=-16.88,-15.88,53.98,54.98,435.17,439.38 SURF_ID='INERT' /
&OBST XB=-15.88,-14.89,53.98,54.98,435.17,439.43 SURF_ID='INERT' /
&OBST XB=-14.89,-13.90,53.98,54.98,435.17,439.44 SURF_ID='INERT' /
&OBST XB=-13.90,-12.91,53.98,54.98,435.17,439.58 SURF_ID='INERT' /
&OBST XB=-12.91,-11.91,53.98,54.98,435.17,439.81 SURF_ID='INERT' /
&OBST XB=-11.91,-10.92,53.98,54.98,435.17,439.80 SURF_ID='INERT' /
&OBST XB=-10.92,-9.93,53.98,54.98,435.17,439.79 SURF_ID='INERT' /
&OBST XB=-9.93,-8.94,53.98,54.98,435.17,439.79 SURF_ID='INERT' /
&OBST XB=-8.94,-7.94,53.98,54.98,435.17,439.78 SURF_ID='INERT' /
&OBST XB=-7.94,-6.95,53.98,54.98,435.17,439.77 SURF_ID='INERT' /
&OBST XB=-6.95,-5.96,53.98,54.98,435.17,440.32 SURF_ID='INERT' /
&OBST XB=-5.96,-4.97,53.98,54.98,435.17,440.65 SURF_ID='INERT' /
&OBST XB=-4.97,-3.97,53.98,54.98,435.17,441.00 SURF_ID='INERT' /
&OBST XB=-3.97,-2.98,53.98,54.98,435.17,440.86 SURF_ID='INERT' /
&OBST XB=-2.98,-1.99,53.98,54.98,435.17,440.89 SURF_ID='INERT' /
&OBST XB=-1.99,-1.00,53.98,54.98,435.17,442.13 SURF_ID='INERT' /
&OBST XB=-1.00,-0.00,53.98,54.98,435.17,444.03 SURF_ID='INERT' /
&OBST XB=-0.00,0.99,53.98,54.98,435.17,443.71 SURF_ID='INERT' /
&OBST XB=0.99,1.98,53.98,54.98,435.17,443.73 SURF_ID='INERT' /
&OBST XB=1.98,2.97,53.98,54.98,435.17,443.74 SURF_ID='INERT' /
&OBST XB=2.97,3.97,53.98,54.98,435.17,443.80 SURF_ID='INERT' /
&OBST XB=3.97,4.96,53.98,54.98,435.17,444.00 SURF_ID='INERT' /
&OBST XB=4.96,5.95,53.98,54.98,435.17,443.93 SURF_ID='INERT' /
&OBST XB=5.95,6.94,53.98,54.98,435.17,443.32 SURF_ID='INERT' /
&OBST XB=6.94,7.94,53.98,54.98,435.17,442.19 SURF_ID='INERT' /
&OBST XB=7.94,8.93,53.98,54.98,435.17,441.37 SURF_ID='INERT' /
&OBST XB=8.93,9.92,53.98,54.98,435.17,442.01 SURF_ID='INERT' /
&OBST XB=9.92,10.91,53.98,54.98,435.17,441.71 SURF_ID='INERT' /
&OBST XB=10.91,11.91,53.98,54.98,435.17,441.43 SURF_ID='INERT' /
&OBST XB=11.91,12.90,53.98,54.98,435.17,441.10 SURF_ID='INERT' /
&OBST XB=12.90,13.89,53.98,54.98,435.17,441.10 SURF_ID='INERT' /
&OBST XB=13.89,14.88,53.98,54.98,435.17,440.86 SURF_ID='INERT' /
&OBST XB=14.88,15.88,53.98,54.98,435.17,439.44 SURF_ID='INERT' /
&OBST XB=15.88,16.87,53.98,54.98,435.17,439.42 SURF_ID='INERT' /
&OBST XB=16.87,17.86,53.98,54.98,435.17,439.38 SURF_ID='INERT' /
&OBST XB=17.86,18.85,53.98,54.98,435.17,439.39 SURF_ID='INERT' /
&OBST XB=18.85,19.85,53.98,54.98,435.17,439.39 SURF_ID='INERT' /
&OBST XB=19.85,20.84,53.98,54.98,435.17,436.69 SURF_ID='INERT' /
&OBST XB=20.84,21.83,53.98,54.98,435.17,435.73 SURF_ID='INERT' /
&OBST XB=21.83,22.82,53.98,54.98,435.17,435.71 SURF_ID='INERT' /
&OBST XB=22.82,23.82,53.98,54.98,435.17,435.66 SURF_ID='INERT' /
&OBST XB=23.82,24.81,53.98,54.98,435.17,435.69 SURF_ID='INERT' /
&OBST XB=24.81,25.80,53.98,54.98,435.17,435.74 SURF_ID='INERT' /
&OBST XB=25.80,26.79,53.98,54.98,435.17,435.79 SURF_ID='INERT' /
&OBST XB=26.79,27.79,53.98,54.98,435.17,435.76 SURF_ID='INERT' /
&OBST XB=27.79,28.78,53.98,54.98,435.17,435.75 SURF_ID='INERT' /
&OBST XB=28.78,29.77,53.98,54.98,435.17,436.07 SURF_ID='INERT' /
&OBST XB=29.77,30.76,53.98,54.98,435.17,436.12 SURF_ID='INERT' /
&OBST XB=30.76,31.76,53.98,54.98,435.17,436.07 SURF_ID='INERT' /
&OBST XB=31.76,32.75,53.98,54.98,435.17,436.05 SURF_ID='INERT' /
&OBST XB=32.75,33.74,53.98,54.98,435.17,435.99 SURF_ID='INERT' /
&OBST XB=33.74,34.73,53.98,54.98,435.17,435.96 SURF_ID='INERT' /
&OBST XB=34.73,35.73,53.98,54.98,435.17,435.92 SURF_ID='INERT' /
&OBST XB=35.73,36.72,53.98,54.98,435.17,435.89 SURF_ID='INERT' /
&OBST XB=36.72,37.71,53.98,54.98,435.17,435.80 SURF_ID='INERT' /
&OBST XB=37.71,38.70,53.98,54.98,435.17,435.71 SURF_ID='INERT' /
&OBST XB=38.70,39.70,53.98,54.98,435.17,435.61 SURF_ID='INERT' /
&OBST XB=39.70,40.69,53.98,54.98,435.17,435.54 SURF_ID='INERT' /
&OBST XB=40.69,41.68,53.98,54.98,435.17,435.49 SURF_ID='INERT' /
&OBST XB=41.68,42.67,53.98,54.98,435.17,435.47 SURF_ID='INERT' /
&OBST XB=42.67,43.67,53.98,54.98,435.17,435.43 SURF_ID='INERT' /
&OBST XB=43.67,44.66,53.98,54.98,435.17,435.40 SURF_ID='INERT' /
&OBST XB=44.66,45.65,53.98,54.98,435.17,435.39 SURF_ID='INERT' /
&OBST XB=45.65,46.64,53.98,54.98,435.17,435.38 SURF_ID='INERT' /
&OBST XB=46.64,47.64,53.98,54.98,435.17,435.32 SURF_ID='INERT' /
&OBST XB=47.64,48.63,53.98,54.98,435.17,435.31 SURF_ID='INERT' /
&OBST XB=48.63,49.62,53.98,54.98,435.17,438.49 SURF_ID='INERT' /
&OBST XB=49.62,50.61,53.98,54.98,435.17,440.97 SURF_ID='INERT' /
&OBST XB=50.61,51.61,53.98,54.98,435.17,440.94 SURF_ID='INERT' /
&OBST XB=51.61,52.60,53.98,54.98,435.17,440.81 SURF_ID='INERT' /
&OBST XB=52.60,53.59,53.98,54.98,435.17,440.80 SURF_ID='INERT' /
&OBST XB=53.59,54.58,53.98,54.98,435.17,440.77 SURF_ID='INERT' /
&OBST XB=54.58,55.58,53.98,54.98,435.17,440.79 SURF_ID='INERT' /
&OBST XB=55.58,56.57,53.98,54.98,435.17,440.91 SURF_ID='INERT' /
&OBST XB=56.57,57.56,53.98,54.98,435.17,440.88 SURF_ID='INERT' /
&OBST XB=57.56,58.55,53.98,54.98,435.17,440.81 SURF_ID='INERT' /
&OBST XB=58.55,59.55,53.98,54.98,435.17,440.79 SURF_ID='INERT' /
&OBST XB=59.55,60.54,53.98,54.98,435.17,440.78 SURF_ID='INERT' /
&OBST XB=60.54,61.53,53.98,54.98,435.17,440.78 SURF_ID='INERT' /
&OBST XB=-61.54,-60.55,52.98,53.98,435.17,442.92 SURF_ID='INERT' /
&OBST XB=-60.55,-59.55,52.98,53.98,435.17,442.90 SURF_ID='INERT' /
&OBST XB=-59.55,-58.56,52.98,53.98,435.17,441.60 SURF_ID='INERT' /
&OBST XB=-58.56,-57.57,52.98,53.98,435.17,441.40 SURF_ID='INERT' /
&OBST XB=-57.57,-56.58,52.98,53.98,435.17,441.35 SURF_ID='INERT' /
&OBST XB=-56.58,-55.58,52.98,53.98,435.17,441.31 SURF_ID='INERT' /
&OBST XB=-55.58,-54.59,52.98,53.98,435.17,441.27 SURF_ID='INERT' /
&OBST XB=-54.59,-53.60,52.98,53.98,435.17,441.32 SURF_ID='INERT' /
&OBST XB=-53.60,-52.61,52.98,53.98,435.17,441.46 SURF_ID='INERT' /
&OBST XB=-52.61,-51.61,52.98,53.98,435.17,441.52 SURF_ID='INERT' /
&OBST XB=-51.61,-50.62,52.98,53.98,435.17,441.60 SURF_ID='INERT' /
&OBST XB=-50.62,-49.63,52.98,53.98,435.17,441.86 SURF_ID='INERT' /
&OBST XB=-49.63,-48.64,52.98,53.98,435.17,442.22 SURF_ID='INERT' /
&OBST XB=-48.64,-47.64,52.98,53.98,435.17,442.71 SURF_ID='INERT' /
&OBST XB=-47.64,-46.65,52.98,53.98,435.17,443.15 SURF_ID='INERT' /
&OBST XB=-46.65,-45.66,52.98,53.98,435.17,443.17 SURF_ID='INERT' /
&OBST XB=-45.66,-44.67,52.98,53.98,435.17,442.97 SURF_ID='INERT' /
&OBST XB=-44.67,-43.67,52.98,53.98,435.17,442.64 SURF_ID='INERT' /
&OBST XB=-43.67,-42.68,52.98,53.98,435.17,442.25 SURF_ID='INERT' /
&OBST XB=-42.68,-41.69,52.98,53.98,435.17,441.91 SURF_ID='INERT' /
&OBST XB=-41.69,-40.70,52.98,53.98,435.17,441.61 SURF_ID='INERT' /
&OBST XB=-40.70,-39.70,52.98,53.98,435.17,441.21 SURF_ID='INERT' /
&OBST XB=-39.70,-38.71,52.98,53.98,435.17,440.82 SURF_ID='INERT' /
&OBST XB=-38.71,-37.72,52.98,53.98,435.17,440.43 SURF_ID='INERT' /
&OBST XB=-37.72,-36.73,52.98,53.98,435.17,440.25 SURF_ID='INERT' /
&OBST XB=-36.73,-35.73,52.98,53.98,435.17,440.16 SURF_ID='INERT' /
&OBST XB=-35.73,-34.74,52.98,53.98,435.17,440.01 SURF_ID='INERT' /
&OBST XB=-34.74,-33.75,52.98,53.98,435.17,439.96 SURF_ID='INERT' /
&OBST XB=-33.75,-32.76,52.98,53.98,435.17,439.96 SURF_ID='INERT' /
&OBST XB=-32.76,-31.76,52.98,53.98,435.17,439.93 SURF_ID='INERT' /
&OBST XB=-31.76,-30.77,52.98,53.98,435.17,439.89 SURF_ID='INERT' /
&OBST XB=-30.77,-29.78,52.98,53.98,435.17,439.85 SURF_ID='INERT' /
&OBST XB=-29.78,-28.79,52.98,53.98,435.17,439.79 SURF_ID='INERT' /
&OBST XB=-28.79,-27.79,52.98,53.98,435.17,439.73 SURF_ID='INERT' /
&OBST XB=-27.79,-26.80,52.98,53.98,435.17,439.66 SURF_ID='INERT' /
&OBST XB=-26.80,-25.81,52.98,53.98,435.17,439.63 SURF_ID='INERT' /
&OBST XB=-25.81,-24.82,52.98,53.98,435.17,439.60 SURF_ID='INERT' /
&OBST XB=-24.82,-23.82,52.98,53.98,435.17,439.57 SURF_ID='INERT' /
&OBST XB=-23.82,-22.83,52.98,53.98,435.17,439.53 SURF_ID='INERT' /
&OBST XB=-22.83,-21.84,52.98,53.98,435.17,439.50 SURF_ID='INERT' /
&OBST XB=-21.84,-20.85,52.98,53.98,435.17,439.50 SURF_ID='INERT' /
&OBST XB=-20.85,-19.85,52.98,53.98,435.17,439.44 SURF_ID='INERT' /
&OBST XB=-19.85,-18.86,52.98,53.98,435.17,439.41 SURF_ID='INERT' /
&OBST XB=-18.86,-17.87,52.98,53.98,435.17,439.38 SURF_ID='INERT' /
&OBST XB=-17.87,-16.88,52.98,53.98,435.17,439.32 SURF_ID='INERT' /
&OBST XB=-16.88,-15.88,52.98,53.98,435.17,439.30 SURF_ID='INERT' /
&OBST XB=-15.88,-14.89,52.98,53.98,435.17,439.25 SURF_ID='INERT' /
&OBST XB=-14.89,-13.90,52.98,53.98,435.17,439.26 SURF_ID='INERT' /
&OBST XB=-13.90,-12.91,52.98,53.98,435.17,439.31 SURF_ID='INERT' /
&OBST XB=-12.91,-11.91,52.98,53.98,435.17,439.26 SURF_ID='INERT' /
&OBST XB=-11.91,-10.92,52.98,53.98,435.17,439.46 SURF_ID='INERT' /
&OBST XB=-10.92,-9.93,52.98,53.98,435.17,439.78 SURF_ID='INERT' /
&OBST XB=-9.93,-8.94,52.98,53.98,435.17,439.78 SURF_ID='INERT' /
&OBST XB=-8.94,-7.94,52.98,53.98,435.17,439.77 SURF_ID='INERT' /
&OBST XB=-7.94,-6.95,52.98,53.98,435.17,439.77 SURF_ID='INERT' /
&OBST XB=-6.95,-5.96,52.98,53.98,435.17,439.75 SURF_ID='INERT' /
&OBST XB=-5.96,-4.97,52.98,53.98,435.17,439.81 SURF_ID='INERT' /
&OBST XB=-4.97,-3.97,52.98,53.98,435.17,440.11 SURF_ID='INERT' /
&OBST XB=-3.97,-2.98,52.98,53.98,435.17,440.60 SURF_ID='INERT' /
&OBST XB=-2.98,-1.99,52.98,53.98,435.17,440.76 SURF_ID='INERT' /
&OBST XB=-1.99,-1.00,52.98,53.98,435.17,442.45 SURF_ID='INERT' /
&OBST XB=-1.00,-0.00,52.98,53.98,435.17,443.88 SURF_ID='INERT' /
&OBST XB=-0.00,0.99,52.98,53.98,435.17,443.69 SURF_ID='INERT' /
&OBST XB=0.99,1.98,52.98,53.98,435.17,443.69 SURF_ID='INERT' /
&OBST XB=1.98,2.97,52.98,53.98,435.17,443.71 SURF_ID='INERT' /
&OBST XB=2.97,3.97,52.98,53.98,435.17,443.72 SURF_ID='INERT' /
&OBST XB=3.97,4.96,52.98,53.98,435.17,443.73 SURF_ID='INERT' /
&OBST XB=4.96,5.95,52.98,53.98,435.17,443.78 SURF_ID='INERT' /
&OBST XB=5.95,6.94,52.98,53.98,435.17,443.99 SURF_ID='INERT' /
&OBST XB=6.94,7.94,52.98,53.98,435.17,444.04 SURF_ID='INERT' /
&OBST XB=7.94,8.93,52.98,53.98,435.17,443.63 SURF_ID='INERT' /
&OBST XB=8.93,9.92,52.98,53.98,435.17,442.47 SURF_ID='INERT' /
&OBST XB=9.92,10.91,52.98,53.98,435.17,441.18 SURF_ID='INERT' /
&OBST XB=10.91,11.91,52.98,53.98,435.17,442.07 SURF_ID='INERT' /
&OBST XB=11.91,12.90,52.98,53.98,435.17,441.79 SURF_ID='INERT' /
&OBST XB=12.90,13.89,52.98,53.98,435.17,440.99 SURF_ID='INERT' /
&OBST XB=13.89,14.88,52.98,53.98,435.17,440.15 SURF_ID='INERT' /
&OBST XB=14.88,15.88,52.98,53.98,435.17,439.41 SURF_ID='INERT' /
&OBST XB=15.88,16.87,52.98,53.98,435.17,439.41 SURF_ID='INERT' /
&OBST XB=16.87,17.86,52.98,53.98,435.17,439.39 SURF_ID='INERT' /
&OBST XB=17.86,18.85,52.98,53.98,435.17,439.40 SURF_ID='INERT' /
&OBST XB=18.85,19.85,52.98,53.98,435.17,439.10 SURF_ID='INERT' /
&OBST XB=19.85,20.84,52.98,53.98,435.17,435.79 SURF_ID='INERT' /
&OBST XB=20.84,21.83,52.98,53.98,435.17,435.71 SURF_ID='INERT' /
&OBST XB=21.83,22.82,52.98,53.98,435.17,435.71 SURF_ID='INERT' /
&OBST XB=22.82,23.82,52.98,53.98,435.17,435.70 SURF_ID='INERT' /
&OBST XB=23.82,24.81,52.98,53.98,435.17,435.72 SURF_ID='INERT' /
&OBST XB=24.81,25.80,52.98,53.98,435.17,435.93 SURF_ID='INERT' /
&OBST XB=25.80,26.79,52.98,53.98,435.17,436.15 SURF_ID='INERT' /
&OBST XB=26.79,27.79,52.98,53.98,435.17,436.13 SURF_ID='INERT' /
&OBST XB=27.79,28.78,52.98,53.98,435.17,436.19 SURF_ID='INERT' /
&OBST XB=28.78,29.77,52.98,53.98,435.17,436.20 SURF_ID='INERT' /
&OBST XB=29.77,30.76,52.98,53.98,435.17,436.16 SURF_ID='INERT' /
&OBST XB=30.76,31.76,52.98,53.98,435.17,436.19 SURF_ID='INERT' /
&OBST XB=31.76,32.75,52.98,53.98,435.17,436.14 SURF_ID='INERT' /
&OBST XB=32.75,33.74,52.98,53.98,435.17,436.06 SURF_ID='INERT' /
&OBST XB=33.74,34.73,52.98,53.98,435.17,436.03 SURF_ID='INERT' /
&OBST XB=34.73,35.73,52.98,53.98,435.17,436.02 SURF_ID='INERT' /
&OBST XB=35.73,36.72,52.98,53.98,435.17,435.97 SURF_ID='INERT' /
&OBST XB=36.72,37.71,52.98,53.98,435.17,435.97 SURF_ID='INERT' /
&OBST XB=37.71,38.70,52.98,53.98,435.17,435.86 SURF_ID='INERT' /
&OBST XB=38.70,39.70,52.98,53.98,435.17,435.62 SURF_ID='INERT' /
&OBST XB=39.70,40.69,52.98,53.98,435.17,435.55 SURF_ID='INERT' /
&OBST XB=40.69,41.68,52.98,53.98,435.17,435.50 SURF_ID='INERT' /
&OBST XB=41.68,42.67,52.98,53.98,435.17,435.46 SURF_ID='INERT' /
&OBST XB=42.67,43.67,52.98,53.98,435.17,435.42 SURF_ID='INERT' /
&OBST XB=43.67,44.66,52.98,53.98,435.17,435.39 SURF_ID='INERT' /
&OBST XB=44.66,45.65,52.98,53.98,435.17,435.37 SURF_ID='INERT' /
&OBST XB=45.65,46.64,52.98,53.98,435.17,435.33 SURF_ID='INERT' /
&OBST XB=46.64,47.64,52.98,53.98,435.17,435.30 SURF_ID='INERT' /
&OBST XB=47.64,48.63,52.98,53.98,435.17,435.27 SURF_ID='INERT' /
&OBST XB=48.63,49.62,52.98,53.98,435.17,435.28 SURF_ID='INERT' /
&OBST XB=49.62,50.61,52.98,53.98,435.17,435.26 SURF_ID='INERT' /
&OBST XB=50.61,51.61,52.98,53.98,435.17,436.22 SURF_ID='INERT' /
&OBST XB=51.61,52.60,52.98,53.98,435.17,439.49 SURF_ID='INERT' /
&OBST XB=52.60,53.59,52.98,53.98,435.17,440.53 SURF_ID='INERT' /
&OBST XB=53.59,54.58,52.98,53.98,435.17,440.86 SURF_ID='INERT' /
&OBST XB=54.58,55.58,52.98,53.98,435.17,440.81 SURF_ID='INERT' /
&OBST XB=55.58,56.57,52.98,53.98,435.17,440.97 SURF_ID='INERT' /
&OBST XB=56.57,57.56,52.98,53.98,435.17,440.79 SURF_ID='INERT' /
&OBST XB=57.56,58.55,52.98,53.98,435.17,440.80 SURF_ID='INERT' /
&OBST XB=58.55,59.55,52.98,53.98,435.17,440.79 SURF_ID='INERT' /
&OBST XB=59.55,60.54,52.98,53.98,435.17,440.78 SURF_ID='INERT' /
&OBST XB=60.54,61.53,52.98,53.98,435.17,440.76 SURF_ID='INERT' /
&OBST XB=-61.54,-60.55,51.98,52.98,435.17,442.92 SURF_ID='INERT' /
&OBST XB=-60.55,-59.55,51.98,52.98,435.17,443.47 SURF_ID='INERT' /
&OBST XB=-59.55,-58.56,51.98,52.98,435.17,441.47 SURF_ID='INERT' /
&OBST XB=-58.56,-57.57,51.98,52.98,435.17,441.44 SURF_ID='INERT' /
&OBST XB=-57.57,-56.58,51.98,52.98,435.17,441.40 SURF_ID='INERT' /
&OBST XB=-56.58,-55.58,51.98,52.98,435.17,441.35 SURF_ID='INERT' /
&OBST XB=-55.58,-54.59,51.98,52.98,435.17,441.33 SURF_ID='INERT' /
&OBST XB=-54.59,-53.60,51.98,52.98,435.17,441.40 SURF_ID='INERT' /
&OBST XB=-53.60,-52.61,51.98,52.98,435.17,441.53 SURF_ID='INERT' /
&OBST XB=-52.61,-51.61,51.98,52.98,435.17,441.61 SURF_ID='INERT' /
&OBST XB=-51.61,-50.62,51.98,52.98,435.17,441.80 SURF_ID='INERT' /
&OBST XB=-50.62,-49.63,51.98,52.98,435.17,442.19 SURF_ID='INERT' /
&OBST XB=-49.63,-48.64,51.98,52.98,435.17,442.66 SURF_ID='INERT' /
&OBST XB=-48.64,-47.64,51.98,52.98,435.17,443.05 SURF_ID='INERT' /
&OBST XB=-47.64,-46.65,51.98,52.98,435.17,443.42 SURF_ID='INERT' /
&OBST XB=-46.65,-45.66,51.98,52.98,435.17,443.45 SURF_ID='INERT' /
&OBST XB=-45.66,-44.67,51.98,52.98,435.17,443.38 SURF_ID='INERT' /
&OBST XB=-44.67,-43.67,51.98,52.98,435.17,443.10 SURF_ID='INERT' /
&OBST XB=-43.67,-42.68,51.98,52.98,435.17,442.67 SURF_ID='INERT' /
&OBST XB=-42.68,-41.69,51.98,52.98,435.17,442.49 SURF_ID='INERT' /
&OBST XB=-41.69,-40.70,51.98,52.98,435.17,442.08 SURF_ID='INERT' /
&OBST XB=-40.70,-39.70,51.98,52.98,435.17,441.60 SURF_ID='INERT' /
&OBST XB=-39.70,-38.71,51.98,52.98,435.17,441.08 SURF_ID='INERT' /
&OBST XB=-38.71,-37.72,51.98,52.98,435.17,440.52 SURF_ID='INERT' /
&OBST XB=-37.72,-36.73,51.98,52.98,435.17,440.27 SURF_ID='INERT' /
&OBST XB=-36.73,-35.73,51.98,52.98,435.17,440.11 SURF_ID='INERT' /
&OBST XB=-35.73,-34.74,51.98,52.98,435.17,439.99 SURF_ID='INERT' /
&OBST XB=-34.74,-33.75,51.98,52.98,435.17,439.97 SURF_ID='INERT' /
&OBST XB=-33.75,-32.76,51.98,52.98,435.17,439.95 SURF_ID='INERT' /
&OBST XB=-32.76,-31.76,51.98,52.98,435.17,439.93 SURF_ID='INERT' /
&OBST XB=-31.76,-30.77,51.98,52.98,435.17,439.90 SURF_ID='INERT' /
&OBST XB=-30.77,-29.78,51.98,52.98,435.17,439.87 SURF_ID='INERT' /
&OBST XB=-29.78,-28.79,51.98,52.98,435.17,439.81 SURF_ID='INERT' /
&OBST XB=-28.79,-27.79,51.98,52.98,435.17,439.77 SURF_ID='INERT' /
&OBST XB=-27.79,-26.80,51.98,52.98,435.17,439.70 SURF_ID='INERT' /
&OBST XB=-26.80,-25.81,51.98,52.98,435.17,439.65 SURF_ID='INERT' /
&OBST XB=-25.81,-24.82,51.98,52.98,435.17,439.57 SURF_ID='INERT' /
&OBST XB=-24.82,-23.82,51.98,52.98,435.17,439.53 SURF_ID='INERT' /
&OBST XB=-23.82,-22.83,51.98,52.98,435.17,439.52 SURF_ID='INERT' /
&OBST XB=-22.83,-21.84,51.98,52.98,435.17,439.46 SURF_ID='INERT' /
&OBST XB=-21.84,-20.85,51.98,52.98,435.17,439.44 SURF_ID='INERT' /
&OBST XB=-20.85,-19.85,51.98,52.98,435.17,439.41 SURF_ID='INERT' /
&OBST XB=-19.85,-18.86,51.98,52.98,435.17,439.37 SURF_ID='INERT' /
&OBST XB=-18.86,-17.87,51.98,52.98,435.17,439.33 SURF_ID='INERT' /
&OBST XB=-17.87,-16.88,51.98,52.98,435.17,439.28 SURF_ID='INERT' /
&OBST XB=-16.88,-15.88,51.98,52.98,435.17,439.24 SURF_ID='INERT' /