! Generated by qgis2fds <0.90> on QGIS <3.22.2-Biaowiea>
! QGIS file: <...cation/tests/test_golden_gate_local/golden_gate_local.qgs>
! Date: <mer, 29 dic 2021, 14:45:48>
! Selected UTM CRS: <WGS 84 / UTM zone 10N>
! Domain origin: <545409.6, 4187342.0>
!   <http://www.openstreetmap.org/?mlat=37.83237143343951&mlon=-122.48396425386197&zoom=12>
! Domain extent: <544771.5,4186832.4 : 545657.3,4187488.1>
! DEM layer: <US_DEM2016_local> with 30.2m resolution
! Landuse layer: <US_200F13_20_local>
! Fire layer: <fire>
! Landuse type file: <...ation/tests/test_golden_gate_local/./Landfire.gov_F13.csv>
! Wind file: <...sfds.verification/tests/test_golden_gate_local/./wind.csv>

&HEAD CHID='golden_gate_local' TITLE='Description of golden_gate_local' /

! MISC LEVEL_SET_MODE parameter
! 1: Wind not affected by the terrain. No fire.
! 2: Wind field established over the terrain, then frozen. No fire.
! 3: Wind field following the terrain, no fire.
! 4: Wind and fire fully-coupled.

&MISC ORIGIN_LAT=37.8323714
      ORIGIN_LON=-122.4839643
      NORTH_BEARING=0.
      TERRAIN_IMAGE='golden_gate_local_tex.png'
      LEVEL_SET_MODE=4 /

&TIME T_END=0. /

! Example REAC, used when LEVEL_SET_MODE=4
&REAC ID='Wood' SOOT_YIELD=0.02 O=2.5 C=3.4 H=6.2
      HEAT_OF_COMBUSTION=17700. /

! Pressure solver
!PRES VELOCITY_TOLERANCE=1.E-6 MAX_PRESSURE_ITERATIONS=100 /

! Radiation solver
!RADI RADIATION=F /

! Domain and its boundary conditions
! 2 x 2 meshes of 443m x 328m x 355m size and 49280 cells each
&MULT ID='Meshes'
      DX=442.910 I_LOWER=0 I_UPPER=1
      DY=327.847 J_LOWER=0 J_UPPER=1 /
&MESH IJK=44,32,35 MULT_ID='Meshes'
      XB=-638.124,-195.214,-509.573,-181.726,-3.000,352.000 /
&VENT ID='Domain BC XMIN' DB='XMIN' SURF_ID='OPEN' /
&VENT ID='Domain BC XMAX' DB='XMAX' SURF_ID='OPEN' /
&VENT ID='Domain BC YMIN' DB='YMIN' SURF_ID='OPEN' /
&VENT ID='Domain BC YMAX' DB='YMAX' SURF_ID='OPEN' /
&VENT ID='Domain BC ZMAX' DB='ZMAX' SURF_ID='OPEN' /

! Landuse boundary conditions
&SURF ID='NA' RGB=255,255,255 /
&SURF ID='A01' RGB=255,254,212 VEG_LSET_FUEL_INDEX=1 /
&SURF ID='A02' RGB=255,253,102 VEG_LSET_FUEL_INDEX=2 /
&SURF ID='A03' RGB=236,212,99 VEG_LSET_FUEL_INDEX=3 /
&SURF ID='A04' RGB=254,193,119 VEG_LSET_FUEL_INDEX=4 /
&SURF ID='A05' RGB=249,197,92 VEG_LSET_FUEL_INDEX=5 /
&SURF ID='A06' RGB=217,196,152 VEG_LSET_FUEL_INDEX=6 /
&SURF ID='A07' RGB=170,155,127 VEG_LSET_FUEL_INDEX=7 /
&SURF ID='A08' RGB=229,253,214 VEG_LSET_FUEL_INDEX=8 /
&SURF ID='A09' RGB=162,191,90 VEG_LSET_FUEL_INDEX=9 /
&SURF ID='A10' RGB=114,154,85 VEG_LSET_FUEL_INDEX=10 /
&SURF ID='A11' RGB=235,212,253 VEG_LSET_FUEL_INDEX=11 /
&SURF ID='A12' RGB=163,177,243 VEG_LSET_FUEL_INDEX=12 /
&SURF ID='A13' RGB=0,0,0 VEG_LSET_FUEL_INDEX=13 /
&SURF ID='Urban' RGB=186,119,80 /
&SURF ID='Snow-Ice' RGB=234,234,234 /
&SURF ID='Agricolture' RGB=253,242,242 /
&SURF ID='Water' RGB=137,183,221 /
&SURF ID='Barren' RGB=133,153,156 /
&SURF ID='Ignition' VEG_LSET_IGNITE_TIME=0. COLOR='RED' /
&SURF ID='Burned' RGB=20,20,20 /

! Output quantities
&SLCF AGL_SLICE=1. QUANTITY='LEVEL SET VALUE' /
&SLCF AGL_SLICE=2. QUANTITY='VISIBILITY' /
&SLCF AGL_SLICE=2. QUANTITY='TEMPERATURE' VECTOR=T /
&SLCF AGL_SLICE=12. QUANTITY='VISIBILITY' /
&SLCF AGL_SLICE=12. QUANTITY='TEMPERATURE' VECTOR=T /
&SLCF PBX=0.000 QUANTITY='TEMPERATURE' VECTOR=T /
&SLCF PBY=0.000 QUANTITY='TEMPERATURE' VECTOR=T /

! Output for wind rose at origin
&DEVC ID='Origin_UV' XYZ=0.,0.,351.000 QUANTITY='U-VELOCITY' /
&DEVC ID='Origin_VV' XYZ=0.,0.,351.000 QUANTITY='V-VELOCITY' /
&DEVC ID='Origin_WV' XYZ=0.,0.,351.000 QUANTITY='W-VELOCITY' /

! Wind
&WIND SPEED=1., RAMP_SPEED_T='ws', RAMP_DIRECTION_T='wd' /
&RAMP ID='ws', T=0.0, F=2.0 /
&RAMP ID='ws', T=180.0, F=5.0 /
&RAMP ID='ws', T=360.0, F=10.0 /
&RAMP ID='wd', T=0.0, F=45.0 /
&RAMP ID='wd', T=180.0, F=90.0 /
&RAMP ID='wd', T=360.0, F=135.0 /

! Terrain (2300 OBSTs)
&OBST XB=-873.868861,-844.610348,125.414275,96.694609,0.000000,170.000000 SURF_ID='A05' /
&OBST XB=-844.610351,-815.351838,133.799000,105.079334,0.000000,172.000000 SURF_ID='A05' /
&OBST XB=-815.351839,-786.093327,142.183730,113.464064,0.000000,174.000000 SURF_ID='A05' /
&OBST XB=-786.093327,-756.834815,150.568464,121.848798,0.000000,177.000000 SURF_ID='A02' /
&OBST XB=-756.834814,-727.576302,158.953202,130.233536,0.000000,189.000000 SURF_ID='A02' /
&OBST XB=-727.576300,-698.317788,167.337944,138.618278,0.000000,203.000000 SURF_ID='A02' /
&OBST XB=-698.317785,-669.059273,175.722691,147.003025,0.000000,217.000000 SURF_ID='A02' /
&OBST XB=-669.059269,-639.800757,184.107442,155.387776,0.000000,225.000000 SURF_ID='A02' /
&OBST XB=-639.800752,-610.542240,192.492197,163.772532,0.000000,231.000000 SURF_ID='A02' /
&OBST XB=-610.542234,-581.283722,200.876957,172.157291,0.000000,235.000000 SURF_ID='A02' /
&OBST XB=-581.283715,-552.025203,209.261721,180.542055,0.000000,233.000000 SURF_ID='A02' /
&OBST XB=-552.025195,-522.766683,217.646489,188.926823,0.000000,238.000000 SURF_ID='A02' /
&OBST XB=-522.766675,-493.508162,226.031261,197.311596,0.000000,249.000000 SURF_ID='A02' /
&OBST XB=-493.508153,-464.249640,234.416038,205.696372,0.000000,251.000000 SURF_ID='A02' /
&OBST XB=-464.249630,-434.991117,242.800819,214.081153,0.000000,252.000000 SURF_ID='A02' /
&OBST XB=-434.991106,-405.732594,251.185604,222.465939,0.000000,249.000000 SURF_ID='A05' /
&OBST XB=-405.732581,-376.474069,259.570394,230.850728,0.000000,234.000000 SURF_ID='A05' /
&OBST XB=-376.474055,-347.215543,267.955188,239.235522,0.000000,214.000000 SURF_ID='A05' /
&OBST XB=-347.215529,-317.957016,276.339986,247.620320,0.000000,191.000000 SURF_ID='A05' /
&OBST XB=-317.957001,-288.698488,284.724788,256.005123,0.000000,176.000000 SURF_ID='A05' /
&OBST XB=-288.698472,-259.439960,293.109595,264.389930,0.000000,158.000000 SURF_ID='A05' /
&OBST XB=-259.439942,-230.181430,301.494406,272.774741,0.000000,142.000000 SURF_ID='A05' /
&OBST XB=-230.181412,-200.922899,309.879222,281.159556,0.000000,128.000000 SURF_ID='A05' /
&OBST XB=-200.922880,-171.664368,318.264041,289.544376,0.000000,115.000000 SURF_ID='A08' /
&OBST XB=-171.664347,-142.405835,326.648865,297.929200,0.000000,106.000000 SURF_ID='A08' /
&OBST XB=-142.405814,-113.147301,335.033694,306.314028,0.000000,95.000000 SURF_ID='A05' /
&OBST XB=-113.147279,-83.888766,343.418526,314.698861,0.000000,86.000000 SURF_ID='Urban' /
&OBST XB=-83.888743,-54.630231,351.803363,323.083697,0.000000,91.000000 SURF_ID='Urban' /
&OBST XB=-54.630207,-25.371694,360.188204,331.468539,0.000000,90.000000 SURF_ID='Urban' /
&OBST XB=-25.371669,3.886843,368.573050,339.853384,0.000000,86.000000 SURF_ID='Urban' /
&OBST XB=3.886870,33.145382,376.957899,348.238234,0.000000,78.000000 SURF_ID='Urban' /
&OBST XB=33.145409,62.403922,385.342753,356.623088,0.000000,64.000000 SURF_ID='Urban' /
&OBST XB=62.403950,91.662462,393.727612,365.007946,0.000000,61.000000 SURF_ID='Urban' /
&OBST XB=91.662491,120.921004,402.112474,373.392809,0.000000,62.000000 SURF_ID='A05' /
&OBST XB=120.921034,150.179546,410.497341,381.777676,0.000000,64.000000 SURF_ID='A05' /
&OBST XB=150.179578,179.438090,418.882213,390.162547,0.000000,66.000000 SURF_ID='A01' /
&OBST XB=179.438122,208.696635,427.267088,398.547423,0.000000,61.000000 SURF_ID='A01' /
&OBST XB=-865.317353,-836.058840,96.694607,67.974941,0.000000,158.000000 SURF_ID='A08' /
&OBST XB=-836.058842,-806.800330,105.079332,76.359667,0.000000,162.000000 SURF_ID='A08' /
&OBST XB=-806.800331,-777.541818,113.464062,84.744397,0.000000,165.000000 SURF_ID='A01' /
&OBST XB=-777.541818,-748.283306,121.848796,93.129131,0.000000,168.000000 SURF_ID='A02' /
&OBST XB=-748.283305,-719.024792,130.233535,101.513869,0.000000,175.000000 SURF_ID='A02' /
&OBST XB=-719.024791,-689.766278,138.618278,109.898612,0.000000,196.000000 SURF_ID='A02' /
&OBST XB=-689.766275,-660.507763,147.003025,118.283359,0.000000,208.000000 SURF_ID='A02' /
&OBST XB=-660.507759,-631.249246,155.387776,126.668110,0.000000,214.000000 SURF_ID='A02' /
&OBST XB=-631.249242,-601.990729,163.772532,135.052866,0.000000,218.000000 SURF_ID='A02' /
&OBST XB=-601.990723,-572.732211,172.157291,143.437626,0.000000,218.000000 SURF_ID='A02' /
&OBST XB=-572.732204,-543.473692,180.542056,151.822390,0.000000,219.000000 SURF_ID='A02' /
&OBST XB=-543.473684,-514.215171,188.926824,160.207158,0.000000,229.000000 SURF_ID='A02' /
&OBST XB=-514.215163,-484.956650,197.311597,168.591931,0.000000,236.000000 SURF_ID='A02' /
&OBST XB=-484.956640,-455.698128,205.696374,176.976708,0.000000,233.000000 SURF_ID='A02' /
&OBST XB=-455.698117,-426.439605,214.081155,185.361490,0.000000,236.000000 SURF_ID='A02' /
&OBST XB=-426.439593,-397.181081,222.465941,193.746275,0.000000,241.000000 SURF_ID='A05' /
&OBST XB=-397.181068,-367.922555,230.850731,202.131065,0.000000,235.000000 SURF_ID='A05' /
&OBST XB=-367.922542,-338.664029,239.235525,210.515859,0.000000,218.000000 SURF_ID='A05' /
&OBST XB=-338.664015,-309.405502,247.620323,218.900658,0.000000,198.000000 SURF_ID='A05' /
&OBST XB=-309.405487,-280.146974,256.005126,227.285460,0.000000,182.000000 SURF_ID='A05' /
&OBST XB=-280.146958,-250.888445,264.389933,235.670268,0.000000,165.000000 SURF_ID='A05' /
&OBST XB=-250.888427,-221.629915,272.774745,244.055079,0.000000,149.000000 SURF_ID='A05' /
&OBST XB=-221.629896,-192.371384,281.159560,252.439895,0.000000,133.000000 SURF_ID='A05' /
&OBST XB=-192.371364,-163.112852,289.544380,260.824715,0.000000,116.000000 SURF_ID='A05' /
&OBST XB=-163.112831,-133.854319,297.929204,269.209539,0.000000,101.000000 SURF_ID='A08' /
&OBST XB=-133.854297,-104.595785,306.314033,277.594367,0.000000,89.000000 SURF_ID='A08' /
&OBST XB=-104.595762,-75.337250,314.698866,285.979200,0.000000,85.000000 SURF_ID='Urban' /
&OBST XB=-75.337226,-46.078714,323.083703,294.364037,0.000000,90.000000 SURF_ID='Urban' /
&OBST XB=-46.078689,-16.820177,331.468544,302.748879,0.000000,88.000000 SURF_ID='Urban' /
&OBST XB=-16.820151,12.438361,339.853390,311.133724,0.000000,84.000000 SURF_ID='Urban' /
&OBST XB=12.438388,41.696900,348.238240,319.518574,0.000000,68.000000 SURF_ID='Urban' /
&OBST XB=41.696927,70.955440,356.623094,327.903429,0.000000,54.000000 SURF_ID='A08' /
&OBST XB=70.955468,100.213981,365.007953,336.288287,0.000000,53.000000 SURF_ID='A05' /
&OBST XB=100.214010,129.472523,373.392816,344.673150,0.000000,53.000000 SURF_ID='A05' /
&OBST XB=129.472553,158.731066,381.777683,353.058018,0.000000,54.000000 SURF_ID='A05' /
&OBST XB=158.731097,187.989610,390.162555,361.442889,0.000000,55.000000 SURF_ID='A05' /
&OBST XB=187.989642,217.248154,398.547431,369.827765,0.000000,51.000000 SURF_ID='A01' /
&OBST XB=-856.765845,-827.507333,67.974938,39.255273,0.000000,149.000000 SURF_ID='A08' /
&OBST XB=-827.507335,-798.248822,76.359664,47.639999,0.000000,152.000000 SURF_ID='A08' /
&OBST XB=-798.248823,-768.990310,84.744395,56.024729,0.000000,155.000000 SURF_ID='A05' /
&OBST XB=-768.990310,-739.731798,93.129129,64.409463,0.000000,161.000000 SURF_ID='A01' /
&OBST XB=-739.731796,-710.473284,101.513868,72.794202,0.000000,169.000000 SURF_ID='A05' /
&OBST XB=-710.473282,-681.214769,109.898611,81.178945,0.000000,189.000000 SURF_ID='A02' /
&OBST XB=-681.214766,-651.956254,118.283358,89.563692,0.000000,201.000000 SURF_ID='A02' /
&OBST XB=-651.956249,-622.697737,126.668110,97.948444,0.000000,200.000000 SURF_ID='A02' /
&OBST XB=-622.697732,-593.439219,135.052866,106.333200,0.000000,199.000000 SURF_ID='A02' /
&OBST XB=-593.439213,-564.180701,143.437626,114.717960,0.000000,200.000000 SURF_ID='A02' /
&OBST XB=-564.180694,-534.922181,151.822390,123.102725,0.000000,207.000000 SURF_ID='A02' /
&OBST XB=-534.922173,-505.663661,160.207159,131.487493,0.000000,218.000000 SURF_ID='A02' /
&OBST XB=-505.663652,-476.405139,168.591932,139.872266,0.000000,220.000000 SURF_ID='Barren' /
&OBST XB=-476.405129,-447.146617,176.976709,148.257044,0.000000,217.000000 SURF_ID='A02' /
&OBST XB=-447.146606,-417.888093,185.361491,156.641825,0.000000,219.000000 SURF_ID='A02' /
&OBST XB=-417.888081,-388.629569,193.746277,165.026611,0.000000,228.000000 SURF_ID='A04' /
&OBST XB=-388.629556,-359.371043,202.131067,173.411401,0.000000,235.000000 SURF_ID='A05' /
&OBST XB=-359.371029,-330.112517,210.515861,181.796196,0.000000,225.000000 SURF_ID='A05' /
&OBST XB=-330.112502,-300.853989,218.900660,190.180995,0.000000,209.000000 SURF_ID='A05' /
&OBST XB=-300.853973,-271.595461,227.285463,198.565798,0.000000,192.000000 SURF_ID='A05' /
&OBST XB=-271.595444,-242.336931,235.670271,206.950605,0.000000,176.000000 SURF_ID='A05' /
&OBST XB=-242.336913,-213.078401,244.055082,215.335417,0.000000,159.000000 SURF_ID='A05' /
&OBST XB=-213.078382,-183.819870,252.439898,223.720233,0.000000,142.000000 SURF_ID='A05' /
&OBST XB=-183.819850,-154.561337,260.824718,232.105053,0.000000,121.000000 SURF_ID='A05' /
&OBST XB=-154.561316,-125.302804,269.209543,240.489877,0.000000,105.000000 SURF_ID='A05' /
&OBST XB=-125.302782,-96.044270,277.594372,248.874706,0.000000,92.000000 SURF_ID='A10' /
&OBST XB=-96.044247,-66.785734,285.979205,257.259539,0.000000,85.000000 SURF_ID='Urban' /
&OBST XB=-66.785710,-37.527198,294.364042,265.644377,0.000000,88.000000 SURF_ID='Urban' /
&OBST XB=-37.527173,-8.268661,302.748884,274.029218,0.000000,87.000000 SURF_ID='Urban' /
&OBST XB=-8.268635,20.989878,311.133730,282.414064,0.000000,84.000000 SURF_ID='Urban' /
&OBST XB=20.989905,50.248417,319.518580,290.798915,0.000000,63.000000 SURF_ID='Urban' /
&OBST XB=50.248445,79.506957,327.903435,299.183769,0.000000,47.000000 SURF_ID='A10' /
&OBST XB=79.506986,108.765498,336.288294,307.568628,0.000000,44.000000 SURF_ID='A10' /
&OBST XB=108.765528,138.024041,344.673157,315.953492,0.000000,44.000000 SURF_ID='A05' /
&OBST XB=138.024072,167.282584,353.058025,324.338359,0.000000,41.000000 SURF_ID='A05' /
&OBST XB=167.282616,196.541128,361.442896,332.723231,0.000000,40.000000 SURF_ID='A02' /
&OBST XB=196.541161,225.799673,369.827773,341.108107,0.000000,39.000000 SURF_ID='A05' /
&OBST XB=-848.214339,-818.955827,39.255270,10.535604,0.000000,140.000000 SURF_ID='Urban' /
&OBST XB=-818.955828,-789.697316,47.639996,18.920330,0.000000,144.000000 SURF_ID='A08' /
&OBST XB=-789.697316,-760.438804,56.024726,27.305061,0.000000,146.000000 SURF_ID='A08' /
&OBST XB=-760.438803,-731.180291,64.409461,35.689795,0.000000,154.000000 SURF_ID='A01' /
&OBST XB=-731.180289,-701.921777,72.794200,44.074534,0.000000,165.000000 SURF_ID='A05' /
&OBST XB=-701.921774,-672.663262,81.178943,52.459278,0.000000,182.000000 SURF_ID='A02' /
&OBST XB=-672.663258,-643.404746,89.563691,60.844025,0.000000,193.000000 SURF_ID='A02' /
&OBST XB=-643.404741,-614.146229,97.948443,69.228777,0.000000,187.000000 SURF_ID='A02' /
&OBST XB=-614.146223,-584.887711,106.333199,77.613533,0.000000,179.000000 SURF_ID='A02' /
&OBST XB=-584.887704,-555.629192,114.717960,85.998294,0.000000,182.000000 SURF_ID='A02' /
&OBST XB=-555.629184,-526.370672,123.102724,94.383059,0.000000,197.000000 SURF_ID='A02' /
&OBST XB=-526.370663,-497.112151,131.487493,102.767828,0.000000,207.000000 SURF_ID='Barren' /
&OBST XB=-497.112142,-467.853629,139.872267,111.152601,0.000000,204.000000 SURF_ID='Barren' /
&OBST XB=-467.853619,-438.595106,148.257044,119.537379,0.000000,200.000000 SURF_ID='A02' /
&OBST XB=-438.595095,-409.336582,156.641826,127.922161,0.000000,204.000000 SURF_ID='A02' /
&OBST XB=-409.336570,-380.078058,165.026612,136.306947,0.000000,215.000000 SURF_ID='A04' /
&OBST XB=-380.078044,-350.819532,173.411403,144.691737,0.000000,229.000000 SURF_ID='A05' /
&OBST XB=-350.819517,-321.561005,181.796198,153.076532,0.000000,231.000000 SURF_ID='A05' /
&OBST XB=-321.560990,-292.302477,190.180997,161.461331,0.000000,217.000000 SURF_ID='A05' /
&OBST XB=-292.302461,-263.043948,198.565800,169.846134,0.000000,200.000000 SURF_ID='A05' /
&OBST XB=-263.043931,-233.785419,206.950608,178.230942,0.000000,183.000000 SURF_ID='A05' /
&OBST XB=-233.785400,-204.526888,215.335420,186.615754,0.000000,166.000000 SURF_ID='A05' /
&OBST XB=-204.526869,-175.268356,223.720236,195.000570,0.000000,147.000000 SURF_ID='A05' /
&OBST XB=-175.268336,-146.009824,232.105056,203.385391,0.000000,128.000000 SURF_ID='A05' /
&OBST XB=-146.009802,-116.751290,240.489881,211.770216,0.000000,113.000000 SURF_ID='A05' /
&OBST XB=-116.751268,-87.492755,248.874710,220.155045,0.000000,99.000000 SURF_ID='A05' /
&OBST XB=-87.492732,-58.234220,257.259544,228.539878,0.000000,85.000000 SURF_ID='Urban' /
&OBST XB=-58.234195,-28.975683,265.644381,236.924716,0.000000,86.000000 SURF_ID='Urban' /
&OBST XB=-28.975658,0.282855,274.029223,245.309558,0.000000,86.000000 SURF_ID='Urban' /
&OBST XB=0.282881,29.541393,282.414070,253.694404,0.000000,82.000000 SURF_ID='Urban' /
&OBST XB=29.541420,58.799933,290.798920,262.079255,0.000000,64.000000 SURF_ID='A05' /
&OBST XB=58.799961,88.058474,299.183775,270.464110,0.000000,45.000000 SURF_ID='A05' /
&OBST XB=88.058503,117.317015,307.568634,278.848969,0.000000,38.000000 SURF_ID='A09' /
&OBST XB=117.317045,146.575558,315.953498,287.233832,0.000000,36.000000 SURF_ID='A08' /
&OBST XB=146.575589,175.834101,324.338366,295.618700,0.000000,32.000000 SURF_ID='A10' /
&OBST XB=175.834133,205.092646,332.723238,304.003572,0.000000,31.000000 SURF_ID='Urban' /
&OBST XB=205.092679,234.351191,341.108114,312.388448,0.000000,29.000000 SURF_ID='Urban' /
&OBST XB=-839.662834,-810.404321,10.535600,-18.184065,0.000000,131.000000 SURF_ID='Urban' /
&OBST XB=-810.404323,-781.145810,18.920327,-9.799339,0.000000,132.000000 SURF_ID='Urban' /
&OBST XB=-781.145810,-751.887298,27.305058,-1.414608,0.000000,137.000000 SURF_ID='A05' /
&OBST XB=-751.887297,-722.628784,35.689793,6.970127,0.000000,147.000000 SURF_ID='A05' /
&OBST XB=-722.628782,-693.370270,44.074532,15.354866,0.000000,164.000000 SURF_ID='A05' /
&OBST XB=-693.370267,-664.111755,52.459276,23.739610,0.000000,172.000000 SURF_ID='A02' /
&OBST XB=-664.111751,-634.853238,60.844023,32.124358,0.000000,183.000000 SURF_ID='A02' /
&OBST XB=-634.853234,-605.594721,69.228776,40.509110,0.000000,172.000000 SURF_ID='A02' /
&OBST XB=-605.594715,-576.336203,77.613532,48.893866,0.000000,162.000000 SURF_ID='A02' /
&OBST XB=-576.336196,-547.077684,85.998293,57.278627,0.000000,171.000000 SURF_ID='A02' /
&OBST XB=-547.077676,-517.819163,94.383058,65.663392,0.000000,190.000000 SURF_ID='A02' /
&OBST XB=-517.819155,-488.560642,102.767827,74.048162,0.000000,191.000000 SURF_ID='A02' /
&OBST XB=-488.560632,-459.302120,111.152601,82.432935,0.000000,185.000000 SURF_ID='A02' /
&OBST XB=-459.302109,-430.043597,119.537379,90.817713,0.000000,183.000000 SURF_ID='A02' /
&OBST XB=-430.043585,-400.785073,127.922161,99.202495,0.000000,190.000000 SURF_ID='A02' /
&OBST XB=-400.785060,-371.526547,136.306947,107.587282,0.000000,205.000000 SURF_ID='A05' /
&OBST XB=-371.526534,-342.268021,144.691738,115.972073,0.000000,224.000000 SURF_ID='A04' /
&OBST XB=-342.268007,-313.009494,153.076533,124.356868,0.000000,232.000000 SURF_ID='A05' /
&OBST XB=-313.009479,-283.750966,161.461333,132.741667,0.000000,222.000000 SURF_ID='A05' /
&OBST XB=-283.750950,-254.492437,169.846136,141.126471,0.000000,204.000000 SURF_ID='A05' /
&OBST XB=-254.492419,-225.233907,178.230944,149.511279,0.000000,187.000000 SURF_ID='A05' /
&OBST XB=-225.233888,-195.975376,186.615756,157.896091,0.000000,171.000000 SURF_ID='A05' /
&OBST XB=-195.975356,-166.716844,195.000573,166.280907,0.000000,154.000000 SURF_ID='A05' /
&OBST XB=-166.716823,-137.458311,203.385394,174.665728,0.000000,134.000000 SURF_ID='A05' /
&OBST XB=-137.458289,-108.199777,211.770219,183.050553,0.000000,118.000000 SURF_ID='A05' /
&OBST XB=-108.199754,-78.941242,220.155048,191.435383,0.000000,104.000000 SURF_ID='A05' /
&OBST XB=-78.941218,-49.682706,228.539882,199.820216,0.000000,89.000000 SURF_ID='Urban' /
&OBST XB=-49.682681,-20.424169,236.924720,208.205054,0.000000,85.000000 SURF_ID='Urban' /
&OBST XB=-20.424143,8.834369,245.309562,216.589897,0.000000,85.000000 SURF_ID='Urban' /
&OBST XB=8.834396,38.092908,253.694409,224.974743,0.000000,82.000000 SURF_ID='Urban' /
&OBST XB=38.092936,67.351448,262.079260,233.359594,0.000000,64.000000 SURF_ID='A05' /
&OBST XB=67.351476,96.609989,270.464115,241.744449,0.000000,47.000000 SURF_ID='A05' /
&OBST XB=96.610018,125.868531,278.848974,250.129309,0.000000,37.000000 SURF_ID='A09' /
&OBST XB=125.868561,155.127074,287.233838,258.514172,0.000000,33.000000 SURF_ID='A09' /
&OBST XB=155.127105,184.385618,295.618706,266.899040,0.000000,29.000000 SURF_ID='A08' /
&OBST XB=184.385650,213.644163,304.003578,275.283913,0.000000,27.000000 SURF_ID='Urban' /
&OBST XB=213.644196,242.902708,312.388455,283.668790,0.000000,24.000000 SURF_ID='A01' /
&OBST XB=-831.111330,-801.852817,-18.184069,-46.903735,0.000000,122.000000 SURF_ID='A08' /
&OBST XB=-801.852818,-772.594305,-9.799343,-38.519008,0.000000,121.000000 SURF_ID='A09' /
&OBST XB=-772.594305,-743.335793,-1.414612,-30.134277,0.000000,131.000000 SURF_ID='Urban' /
&OBST XB=-743.335792,-714.077279,6.970124,-21.749542,0.000000,141.000000 SURF_ID='Urban' /
&OBST XB=-714.077277,-684.818764,15.354863,-13.364802,0.000000,155.000000 SURF_ID='A05' /
&OBST XB=-684.818761,-655.560249,23.739607,-4.980058,0.000000,168.000000 SURF_ID='Urban' /
&OBST XB=-655.560245,-626.301732,32.124355,3.404690,0.000000,169.000000 SURF_ID='Urban' /
&OBST XB=-626.301727,-597.043215,40.509108,11.789442,0.000000,162.000000 SURF_ID='Urban' /
&OBST XB=-597.043208,-567.784696,48.893865,20.174199,0.000000,153.000000 SURF_ID='Urban' /
&OBST XB=-567.784689,-538.526176,57.278626,28.558960,0.000000,165.000000 SURF_ID='A05' /
&OBST XB=-538.526168,-509.267656,65.663391,36.943725,0.000000,174.000000 SURF_ID='A02' /
&OBST XB=-509.267647,-480.009134,74.048161,45.328495,0.000000,172.000000 SURF_ID='A02' /
&OBST XB=-480.009124,-450.750612,82.432935,53.713269,0.000000,165.000000 SURF_ID='A02' /
&OBST XB=-450.750601,-421.492088,90.817713,62.098047,0.000000,166.000000 SURF_ID='A02' /
&OBST XB=-421.492076,-392.233564,99.202495,70.482830,0.000000,183.000000 SURF_ID='A02' /
&OBST XB=-392.233551,-362.975038,107.587282,78.867616,0.000000,201.000000 SURF_ID='A02' /
&OBST XB=-362.975024,-333.716512,115.972073,87.252407,0.000000,215.000000 SURF_ID='A04' /
&OBST XB=-333.716497,-304.457984,124.356868,95.637203,0.000000,227.000000 SURF_ID='A05' /
&OBST XB=-304.457969,-275.199456,132.741668,104.022002,0.000000,224.000000 SURF_ID='A05' /
&OBST XB=-275.199439,-245.940927,141.126472,112.406806,0.000000,208.000000 SURF_ID='A05' /
&OBST XB=-245.940909,-216.682396,149.511280,120.791615,0.000000,192.000000 SURF_ID='A05' /
&OBST XB=-216.682377,-187.423865,157.896093,129.176427,0.000000,175.000000 SURF_ID='A05' /
&OBST XB=-187.423845,-158.165333,166.280910,137.561244,0.000000,158.000000 SURF_ID='A05' /
&OBST XB=-158.165312,-128.906799,174.665731,145.946065,0.000000,142.000000 SURF_ID='A05' /
&OBST XB=-128.906777,-99.648265,183.050556,154.330890,0.000000,129.000000 SURF_ID='A05' /
&OBST XB=-99.648242,-70.389730,191.435386,162.715720,0.000000,112.000000 SURF_ID='A05' /
&OBST XB=-70.389706,-41.131193,199.820220,171.100554,0.000000,102.000000 SURF_ID='Urban' /
&OBST XB=-41.131168,-11.872656,208.205058,179.485392,0.000000,89.000000 SURF_ID='Urban' /
&OBST XB=-11.872630,17.385882,216.589901,187.870235,0.000000,84.000000 SURF_ID='Urban' /
&OBST XB=17.385909,46.644422,224.974747,196.255082,0.000000,82.000000 SURF_ID='Urban' /
&OBST XB=46.644450,75.902962,233.359599,204.639933,0.000000,68.000000 SURF_ID='A05' /
&OBST XB=75.902991,105.161503,241.744454,213.024788,0.000000,49.000000 SURF_ID='A08' /
&OBST XB=105.161533,134.420046,250.129314,221.409648,0.000000,38.000000 SURF_ID='A09' /
&OBST XB=134.420076,163.678589,258.514178,229.794512,0.000000,35.000000 SURF_ID='A09' /
&OBST XB=163.678621,192.937133,266.899046,238.179381,0.000000,30.000000 SURF_ID='A09' /
&OBST XB=192.937166,222.195678,275.283919,246.564253,0.000000,25.000000 SURF_ID='Urban' /
&OBST XB=222.195712,251.454225,283.668796,254.949130,0.000000,23.000000 SURF_ID='Urban' /
&OBST XB=-822.559826,-793.301314,-46.903740,-75.623405,0.000000,113.000000 SURF_ID='A08' /
&OBST XB=-793.301314,-764.042802,-38.519013,-67.238678,0.000000,116.000000 SURF_ID='A08' /
&OBST XB=-764.042801,-734.784289,-30.134281,-58.853947,0.000000,129.000000 SURF_ID='A05' /
&OBST XB=-734.784287,-705.525775,-21.749546,-50.469211,0.000000,141.000000 SURF_ID='Urban' /
&OBST XB=-705.525772,-676.267260,-13.364806,-42.084471,0.000000,154.000000 SURF_ID='Urban' /
&OBST XB=-676.267256,-647.008744,-4.980062,-33.699727,0.000000,162.000000 SURF_ID='Urban' /
&OBST XB=-647.008739,-617.750227,3.404687,-25.314979,0.000000,160.000000 SURF_ID='Urban' /
&OBST XB=-617.750221,-588.491709,11.789440,-16.930226,0.000000,148.000000 SURF_ID='A05' /
&OBST XB=-588.491703,-559.233190,20.174197,-8.545469,0.000000,137.000000 SURF_ID='Urban' /
&OBST XB=-559.233183,-529.974670,28.558958,-0.160707,0.000000,153.000000 SURF_ID='Urban' /
&OBST XB=-529.974662,-500.716149,36.943724,8.224058,0.000000,158.000000 SURF_ID='A05' /
&OBST XB=-500.716140,-471.457627,45.328494,16.608828,0.000000,155.000000 SURF_ID='A05' /
&OBST XB=-471.457617,-442.199105,53.713268,24.993602,0.000000,150.000000 SURF_ID='A05' /
&OBST XB=-442.199093,-412.940581,62.098046,33.378381,0.000000,158.000000 SURF_ID='A05' /
&OBST XB=-412.940568,-383.682056,70.482829,41.763164,0.000000,174.000000 SURF_ID='A02' /
&OBST XB=-383.682043,-354.423530,78.867616,50.147951,0.000000,186.000000 SURF_ID='A02' /
&OBST XB=-354.423516,-325.165003,87.252408,58.532742,0.000000,203.000000 SURF_ID='A02' /
&OBST XB=-325.164988,-295.906476,95.637203,66.917538,0.000000,223.000000 SURF_ID='A04' /
&OBST XB=-295.906459,-266.647947,104.022003,75.302337,0.000000,225.000000 SURF_ID='A05' /
&OBST XB=-266.647930,-237.389417,112.406807,83.687142,0.000000,214.000000 SURF_ID='A05' /
&OBST XB=-237.389399,-208.130887,120.791616,92.071950,0.000000,197.000000 SURF_ID='A05' /
&OBST XB=-208.130867,-178.872355,129.176429,100.456763,0.000000,178.000000 SURF_ID='A05' /
&OBST XB=-178.872335,-149.613822,137.561246,108.841580,0.000000,161.000000 SURF_ID='A05' /
&OBST XB=-149.613801,-120.355288,145.946067,117.226401,0.000000,147.000000 SURF_ID='A05' /
&OBST XB=-120.355266,-91.096754,154.330893,125.611227,0.000000,135.000000 SURF_ID='A08' /
&OBST XB=-91.096731,-61.838218,162.715723,133.996057,0.000000,124.000000 SURF_ID='A08' /
&OBST XB=-61.838194,-32.579681,171.100557,142.380891,0.000000,111.000000 SURF_ID='A10' /
&OBST XB=-32.579656,-3.321144,179.485396,150.765730,0.000000,91.000000 SURF_ID='Urban' /
&OBST XB=-3.321118,25.937395,187.870238,159.150573,0.000000,82.000000 SURF_ID='Urban' /
&OBST XB=25.937422,55.195934,196.255086,167.535420,0.000000,82.000000 SURF_ID='Urban' /
&OBST XB=55.195963,84.454475,204.639937,175.920271,0.000000,75.000000 SURF_ID='Urban' /
&OBST XB=84.454504,113.713017,213.024793,184.305127,0.000000,58.000000 SURF_ID='Urban' /
&OBST XB=113.713047,142.971559,221.409653,192.689987,0.000000,43.000000 SURF_ID='A09' /
&OBST XB=142.971590,172.230103,229.794517,201.074851,0.000000,39.000000 SURF_ID='A10' /
&OBST XB=172.230135,201.488647,238.179386,209.459720,0.000000,34.000000 SURF_ID='A10' /
&OBST XB=201.488681,230.747193,246.564259,217.844593,0.000000,28.000000 SURF_ID='A12' /
&OBST XB=230.747227,260.005740,254.949136,226.229470,0.000000,23.000000 SURF_ID='Urban' /
&OBST XB=-814.008324,-784.749812,-75.623410,-104.343076,0.000000,104.000000 SURF_ID='A08' /
&OBST XB=-784.749812,-755.491299,-67.238683,-95.958349,0.000000,113.000000 SURF_ID='A05' /
&OBST XB=-755.491298,-726.232786,-58.853951,-87.573617,0.000000,128.000000 SURF_ID='A05' /
&OBST XB=-726.232784,-696.974271,-50.469215,-79.188881,0.000000,143.000000 SURF_ID='A05' /
&OBST XB=-696.974269,-667.715756,-42.084475,-70.804141,0.000000,153.000000 SURF_ID='A05' /
&OBST XB=-667.715752,-638.457240,-33.699731,-62.419396,0.000000,153.000000 SURF_ID='A05' /
&OBST XB=-638.457235,-609.198723,-25.314982,-54.034648,0.000000,143.000000 SURF_ID='A05' /
&OBST XB=-609.198717,-579.940204,-16.930229,-45.649895,0.000000,129.000000 SURF_ID='A01' /
&OBST XB=-579.940198,-550.681685,-8.545472,-37.265137,0.000000,127.000000 SURF_ID='A05' /
&OBST XB=-550.681677,-521.423165,-0.160710,-28.880376,0.000000,141.000000 SURF_ID='Urban' /
&OBST XB=-521.423156,-492.164644,8.224056,-20.495610,0.000000,142.000000 SURF_ID='Urban' /
&OBST XB=-492.164634,-462.906122,16.608826,-12.110839,0.000000,135.000000 SURF_ID='Urban' /
&OBST XB=-462.906111,-433.647598,24.993601,-3.726065,0.000000,133.000000 SURF_ID='Urban' /
&OBST XB=-433.647587,-404.389074,33.378379,4.658714,0.000000,148.000000 SURF_ID='Urban' /
&OBST XB=-404.389062,-375.130549,41.763163,13.043497,0.000000,161.000000 SURF_ID='A05' /
&OBST XB=-375.130536,-345.872023,50.147950,21.428284,0.000000,180.000000 SURF_ID='A02' /
&OBST XB=-345.872008,-316.613496,58.532742,29.813076,0.000000,198.000000 SURF_ID='A02' /
&OBST XB=-316.613480,-287.354968,66.917537,38.197872,0.000000,214.000000 SURF_ID='A02' /
&OBST XB=-287.354951,-258.096439,75.302338,46.582672,0.000000,225.000000 SURF_ID='A05' /
&OBST XB=-258.096421,-228.837909,83.687142,54.967477,0.000000,219.000000 SURF_ID='A05' /
&OBST XB=-228.837890,-199.579378,92.071951,63.352285,0.000000,203.000000 SURF_ID='A05' /
&OBST XB=-199.579358,-170.320846,100.456764,71.737098,0.000000,182.000000 SURF_ID='A05' /
&OBST XB=-170.320825,-141.062313,108.841581,80.121916,0.000000,163.000000 SURF_ID='A05' /
&OBST XB=-141.062291,-111.803779,117.226403,88.506737,0.000000,151.000000 SURF_ID='A05' /
&OBST XB=-111.803756,-82.545244,125.611229,96.891563,0.000000,137.000000 SURF_ID='A01' /
&OBST XB=-82.545220,-53.286708,133.996059,105.276394,0.000000,124.000000 SURF_ID='A05' /
&OBST XB=-53.286683,-24.028171,142.380894,113.661228,0.000000,109.000000 SURF_ID='A05' /
&OBST XB=-24.028145,5.230367,150.765733,122.046067,0.000000,96.000000 SURF_ID='A05' /
&OBST XB=5.230394,34.488906,159.150576,130.430910,0.000000,85.000000 SURF_ID='Urban' /
&OBST XB=34.488934,63.747446,167.535423,138.815758,0.000000,82.000000 SURF_ID='Urban' /
&OBST XB=63.747475,93.005987,175.920275,147.200609,0.000000,80.000000 SURF_ID='Urban' /