! Generated by qgis2fds 1.0.2 on QGIS 3.28.8-Firenze
! QGIS file: tests/test_golden_gate_remote/golden_gate_remote.qgs
! Date: Fri, 21 Jul 2023, 15:45:10

Selected UTM CRS: WGS 84 / UTM zone 10N
Domain origin: 545409.6E 4187342.0N
  <http://www.openstreetmap.org/?mlat=37.83237143343951&mlon=-122.48396425386197&zoom=12>
Domain extent: 543156.9-546839.4E 4185650.3-4189278.5N

Desired resolution: 30.0m
DEM layer: LC20_Elev_220
Landuse layer: LC22_F13_220
Landuse type file: ...cation/tests/test_golden_gate_remote\Landfire.gov_F13.csv
Fire layer: fire
FDS DEVCs layer: FIXME
Wind file: ...isfds.verification/tests/test_golden_gate_remote\wind.csv

&HEAD CHID='golden_gate_remote_obst' TITLE='Description of golden_gate_remote_obst' /

MISC LEVEL_SET_MODE parameter
 1: Wind not affected by the terrain. No fire.
 2: Wind field established over the terrain, then frozen. No fire.
 3: Wind field following the terrain, no fire.
 4: Wind and fire fully-coupled.

&MISC ORIGIN_LAT=37.8323714
      ORIGIN_LON=-122.4839643
      NORTH_BEARING=0.
      TERRAIN_IMAGE='golden_gate_remote_obst_tex.png'
      LEVEL_SET_MODE=1 
      THICKEN_OBSTRUCTIONS=T /

&TIME T_END=0. /

Example REAC, used when LEVEL_SET_MODE=4
_REAC ID='Wood' SOOT_YIELD=0.005 O=2.5 C=3.4 H=6.2
      HEAT_OF_COMBUSTION=17700. /

Domain and its boundary conditions
2 · 2 meshes of 1840.2m · 1813.1m · 406.3m size and 1332160 cells each
&MULT ID='Meshes'
      DX=1840.24 I_LOWER=0 I_UPPER=1
      DY=1813.10 J_LOWER=0 J_UPPER=1 /
&MESH IJK=184,181,40 MULT_ID='Meshes'
      XB=-2251.70,-411.46,-1690.68,122.42,-2.00,404.33 /
&VENT ID='Domain BC XMIN' DB='XMIN' SURF_ID='OPEN' /
&VENT ID='Domain BC XMAX' DB='XMAX' SURF_ID='OPEN' /
&VENT ID='Domain BC YMIN' DB='YMIN' SURF_ID='OPEN' /
&VENT ID='Domain BC YMAX' DB='YMAX' SURF_ID='OPEN' /
&VENT ID='Domain BC ZMAX' DB='ZMAX' SURF_ID='OPEN' /

Wind rose at domain origin
&DEVC ID='Origin_UV' XYZ=0.,0.,404.23 QUANTITY='U-VELOCITY' /
&DEVC ID='Origin_VV' XYZ=0.,0.,404.23 QUANTITY='V-VELOCITY' /
&DEVC ID='Origin_WV' XYZ=0.,0.,404.23 QUANTITY='W-VELOCITY' /

Landuse boundary conditions
&SURF ID='NA' RGB=255,255,255 /
&SURF ID='A01' RGB=255,254,212 VEG_LSET_FUEL_INDEX=1 /
&SURF ID='A02' RGB=255,253,102 VEG_LSET_FUEL_INDEX=2 /
&SURF ID='A03' RGB=236,212,99 VEG_LSET_FUEL_INDEX=3 /
&SURF ID='A04' RGB=254,193,119 VEG_LSET_FUEL_INDEX=4 /
&SURF ID='A05' RGB=249,197,92 VEG_LSET_FUEL_INDEX=5 /
&SURF ID='A06' RGB=217,196,152 VEG_LSET_FUEL_INDEX=6 /
&SURF ID='A07' RGB=170,155,127 VEG_LSET_FUEL_INDEX=7 /
&SURF ID='A08' RGB=229,253,214 VEG_LSET_FUEL_INDEX=8 /
&SURF ID='A09' RGB=162,191,90 VEG_LSET_FUEL_INDEX=9 /
&SURF ID='A10' RGB=114,154,85 VEG_LSET_FUEL_INDEX=10 /
&SURF ID='A11' RGB=235,212,253 VEG_LSET_FUEL_INDEX=11 /
&SURF ID='A12' RGB=163,177,243 VEG_LSET_FUEL_INDEX=12 /
&SURF ID='A13' RGB=0,0,0 VEG_LSET_FUEL_INDEX=13 /
&SURF ID='Urban' RGB=186,119,80 /
&SURF ID='Snow-Ice' RGB=234,234,234 /
&SURF ID='Agricolture' RGB=253,242,242 /
&SURF ID='Water' RGB=137,183,221 /
&SURF ID='Barren' RGB=133,153,156 /
&SURF ID='Ignition' VEG_LSET_IGNITE_TIME=0. COLOR='RED' /
&SURF ID='Burned' RGB=20,20,20 /

Output quantities
&SLCF AGL_SLICE=5. QUANTITY='LEVEL SET VALUE' /
&SLCF AGL_SLICE=5. QUANTITY='TEMPERATURE' VECTOR=T /
&SLCF PBX=0.00 QUANTITY='TEMPERATURE' VECTOR=T /
&SLCF PBY=0.00 QUANTITY='TEMPERATURE' VECTOR=T /

Wind
&WIND SPEED=1., RAMP_SPEED_T='ws', RAMP_DIRECTION_T='wd' /
&RAMP ID='ws', T=0.0, F=2.0 /
&RAMP ID='ws', T=180.0, F=5.0 /
&RAMP ID='ws', T=360.0, F=10.0 /
&RAMP ID='wd', T=0.0, F=45.0 /
&RAMP ID='wd', T=180.0, F=90.0 /
&RAMP ID='wd', T=360.0, F=135.0 /

Terrain (14883 OBSTs)
&OBST XB=-2252.70,-2222.76,1906.53,1936.51,-2.00,83.30 SURF_ID='A10' /
&OBST XB=-2222.76,-2192.82,1906.53,1936.51,-2.00,86.95 SURF_ID='A10' /
&OBST XB=-2192.82,-2162.88,1906.53,1936.51,-2.00,93.84 SURF_ID='A10' /
&OBST XB=-2162.88,-2132.94,1906.53,1936.51,-2.00,107.05 SURF_ID='A05' /
&OBST XB=-2132.94,-2103.00,1906.53,1936.51,-2.00,120.40 SURF_ID='A05' /
&OBST XB=-2103.00,-2073.07,1906.53,1936.51,-2.00,131.81 SURF_ID='A05' /
&OBST XB=-2073.07,-2043.13,1906.53,1936.51,-2.00,142.05 SURF_ID='A05' /
&OBST XB=-2043.13,-2013.19,1906.53,1936.51,-2.00,147.82 SURF_ID='A05' /
&OBST XB=-2013.19,-1983.25,1906.53,1936.51,-2.00,155.47 SURF_ID='A05' /
&OBST XB=-1983.25,-1953.31,1906.53,1936.51,-2.00,165.48 SURF_ID='A05' /
&OBST XB=-1953.31,-1923.37,1906.53,1936.51,-2.00,175.82 SURF_ID='A05' /
&OBST XB=-1923.37,-1893.43,1906.53,1936.51,-2.00,184.68 SURF_ID='A05' /
&OBST XB=-1893.43,-1863.49,1906.53,1936.51,-2.00,193.00 SURF_ID='A05' /
&OBST XB=-1863.49,-1833.55,1906.53,1936.51,-2.00,202.55 SURF_ID='A05' /
&OBST XB=-1833.55,-1803.62,1906.53,1936.51,-2.00,212.42 SURF_ID='A05' /
&OBST XB=-1803.62,-1773.68,1906.53,1936.51,-2.00,222.66 SURF_ID='A05' /
&OBST XB=-1773.68,-1743.74,1906.53,1936.51,-2.00,232.54 SURF_ID='A05' /
&OBST XB=-1743.74,-1713.80,1906.53,1936.51,-2.00,242.65 SURF_ID='A05' /
&OBST XB=-1713.80,-1683.86,1906.53,1936.51,-2.00,253.44 SURF_ID='A05' /
&OBST XB=-1683.86,-1653.92,1906.53,1936.51,-2.00,263.06 SURF_ID='A05' /
&OBST XB=-1653.92,-1623.98,1906.53,1936.51,-2.00,272.39 SURF_ID='A05' /
&OBST XB=-1623.98,-1594.04,1906.53,1936.51,-2.00,281.35 SURF_ID='A05' /
&OBST XB=-1594.04,-1564.11,1906.53,1936.51,-2.00,288.65 SURF_ID='A05' /
&OBST XB=-1564.11,-1534.17,1906.53,1936.51,-2.00,296.73 SURF_ID='A02' /
&OBST XB=-1534.17,-1504.23,1906.53,1936.51,-2.00,303.56 SURF_ID='A05' /
&OBST XB=-1504.23,-1474.29,1906.53,1936.51,-2.00,304.33 SURF_ID='A04' /
&OBST XB=-1474.29,-1444.35,1906.53,1936.51,-2.00,303.93 SURF_ID='A05' /
&OBST XB=-1444.35,-1414.41,1906.53,1936.51,-2.00,302.76 SURF_ID='A05' /
&OBST XB=-1414.41,-1384.47,1906.53,1936.51,-2.00,301.32 SURF_ID='A05' /
&OBST XB=-1384.47,-1354.53,1906.53,1936.51,-2.00,301.33 SURF_ID='A05' /
&OBST XB=-1354.53,-1324.59,1906.53,1936.51,-2.00,301.93 SURF_ID='A05' /
&OBST XB=-1324.59,-1294.66,1906.53,1936.51,-2.00,302.15 SURF_ID='A05' /
&OBST XB=-1294.66,-1264.72,1906.53,1936.51,-2.00,299.88 SURF_ID='A05' /
&OBST XB=-1264.72,-1234.78,1906.53,1936.51,-2.00,294.37 SURF_ID='A05' /
&OBST XB=-1234.78,-1204.84,1906.53,1936.51,-2.00,286.87 SURF_ID='A05' /
&OBST XB=-1204.84,-1174.90,1906.53,1936.51,-2.00,276.46 SURF_ID='A05' /
&OBST XB=-1174.90,-1144.96,1906.53,1936.51,-2.00,267.20 SURF_ID='A05' /
&OBST XB=-1144.96,-1115.02,1906.53,1936.51,-2.00,258.62 SURF_ID='A02' /
&OBST XB=-1115.02,-1085.08,1906.53,1936.51,-2.00,256.43 SURF_ID='A02' /
&OBST XB=-1085.08,-1055.15,1906.53,1936.51,-2.00,255.85 SURF_ID='A05' /
&OBST XB=-1055.15,-1025.21,1906.53,1936.51,-2.00,251.43 SURF_ID='A05' /
&OBST XB=-1025.21,-995.27,1906.53,1936.51,-2.00,252.84 SURF_ID='A05' /
&OBST XB=-995.27,-965.33,1906.53,1936.51,-2.00,254.04 SURF_ID='A02' /
&OBST XB=-965.33,-935.39,1906.53,1936.51,-2.00,248.13 SURF_ID='A02' /
&OBST XB=-935.39,-905.45,1906.53,1936.51,-2.00,249.28 SURF_ID='A05' /
&OBST XB=-905.45,-875.51,1906.53,1936.51,-2.00,258.73 SURF_ID='A05' /
&OBST XB=-875.51,-845.57,1906.53,1936.51,-2.00,272.32 SURF_ID='A04' /
&OBST XB=-845.57,-815.63,1906.53,1936.51,-2.00,285.15 SURF_ID='A05' /
&OBST XB=-815.63,-785.70,1906.53,1936.51,-2.00,294.23 SURF_ID='A05' /
&OBST XB=-785.70,-755.76,1906.53,1936.51,-2.00,296.83 SURF_ID='Urban' /
&OBST XB=-755.76,-725.82,1906.53,1936.51,-2.00,289.73 SURF_ID='A05' /
&OBST XB=-725.82,-695.88,1906.53,1936.51,-2.00,274.46 SURF_ID='A05' /
&OBST XB=-695.88,-665.94,1906.53,1936.51,-2.00,256.73 SURF_ID='Urban' /
&OBST XB=-665.94,-636.00,1906.53,1936.51,-2.00,236.52 SURF_ID='Urban' /
&OBST XB=-636.00,-606.06,1906.53,1936.51,-2.00,217.70 SURF_ID='Urban' /
&OBST XB=-606.06,-576.12,1906.53,1936.51,-2.00,201.57 SURF_ID='A05' /
&OBST XB=-576.12,-546.19,1906.53,1936.51,-2.00,186.01 SURF_ID='A09' /
&OBST XB=-546.19,-516.25,1906.53,1936.51,-2.00,175.88 SURF_ID='Urban' /
&OBST XB=-516.25,-486.31,1906.53,1936.51,-2.00,165.21 SURF_ID='Urban' /
&OBST XB=-486.31,-456.37,1906.53,1936.51,-2.00,147.25 SURF_ID='Urban' /
&OBST XB=-456.37,-426.43,1906.53,1936.51,-2.00,132.31 SURF_ID='A08' /
&OBST XB=-426.43,-396.49,1906.53,1936.51,-2.00,119.30 SURF_ID='A08' /
&OBST XB=-396.49,-366.55,1906.53,1936.51,-2.00,109.03 SURF_ID='A08' /
&OBST XB=-366.55,-336.61,1906.53,1936.51,-2.00,98.92 SURF_ID='Urban' /
&OBST XB=-336.61,-306.67,1906.53,1936.51,-2.00,88.91 SURF_ID='Urban' /
&OBST XB=-306.67,-276.74,1906.53,1936.51,-2.00,84.01 SURF_ID='A05' /
&OBST XB=-276.74,-246.80,1906.53,1936.51,-2.00,77.48 SURF_ID='A05' /
&OBST XB=-246.80,-216.86,1906.53,1936.51,-2.00,71.69 SURF_ID='A08' /
&OBST XB=-216.86,-186.92,1906.53,1936.51,-2.00,68.44 SURF_ID='Urban' /
&OBST XB=-186.92,-156.98,1906.53,1936.51,-2.00,67.10 SURF_ID='Urban' /
&OBST XB=-156.98,-127.04,1906.53,1936.51,-2.00,64.61 SURF_ID='Urban' /
&OBST XB=-127.04,-97.10,1906.53,1936.51,-2.00,61.38 SURF_ID='Urban' /
&OBST XB=-97.10,-67.16,1906.53,1936.51,-2.00,54.92 SURF_ID='Urban' /
&OBST XB=-67.16,-37.23,1906.53,1936.51,-2.00,47.38 SURF_ID='Urban' /
&OBST XB=-37.23,-7.29,1906.53,1936.51,-2.00,40.41 SURF_ID='Urban' /
&OBST XB=-7.29,22.65,1906.53,1936.51,-2.00,35.90 SURF_ID='Urban' /
&OBST XB=22.65,52.59,1906.53,1936.51,-2.00,31.27 SURF_ID='Urban' /
&OBST XB=52.59,82.53,1906.53,1936.51,-2.00,27.18 SURF_ID='Urban' /
&OBST XB=82.53,112.47,1906.53,1936.51,-2.00,24.15 SURF_ID='Urban' /
&OBST XB=112.47,142.41,1906.53,1936.51,-2.00,20.27 SURF_ID='Urban' /
&OBST XB=142.41,172.35,1906.53,1936.51,-2.00,16.71 SURF_ID='Urban' /
&OBST XB=172.35,202.29,1906.53,1936.51,-2.00,13.12 SURF_ID='Urban' /
&OBST XB=202.29,232.22,1906.53,1936.51,-2.00,9.48 SURF_ID='Urban' /
&OBST XB=232.22,262.16,1906.53,1936.51,-2.00,7.08 SURF_ID='Urban' /
&OBST XB=262.16,292.10,1906.53,1936.51,-2.00,3.98 SURF_ID='Urban' /
&OBST XB=292.10,322.04,1906.53,1936.51,-2.00,1.81 SURF_ID='Urban' /
&OBST XB=322.04,351.98,1906.53,1936.51,-2.00,0.24 SURF_ID='Urban' /
&OBST XB=351.98,381.92,1906.53,1936.51,-2.00,0.00 SURF_ID='A05' /
&OBST XB=381.92,411.86,1906.53,1936.51,-2.00,0.00 SURF_ID='Water' /
&OBST XB=411.86,441.80,1906.53,1936.51,-2.00,0.00 SURF_ID='Water' /
&OBST XB=441.80,471.73,1906.53,1936.51,-2.00,0.00 SURF_ID='Water' /
&OBST XB=471.73,501.67,1906.53,1936.51,-2.00,0.00 SURF_ID='Water' /
&OBST XB=501.67,531.61,1906.53,1936.51,-2.00,0.00 SURF_ID='Water' /
&OBST XB=531.61,561.55,1906.53,1936.51,-2.00,0.00 SURF_ID='Water' /
&OBST XB=561.55,591.49,1906.53,1936.51,-2.00,0.00 SURF_ID='Water' /
&OBST XB=591.49,621.43,1906.53,1936.51,-2.00,0.00 SURF_ID='Water' /
&OBST XB=621.43,651.37,1906.53,1936.51,-2.00,0.00 SURF_ID='Water' /
&OBST XB=651.37,681.31,1906.53,1936.51,-2.00,0.00 SURF_ID='Water' /
&OBST XB=681.31,711.24,1906.53,1936.51,-2.00,0.00 SURF_ID='Water' /
&OBST XB=711.24,741.18,1906.53,1936.51,-2.00,0.00 SURF_ID='Water' /
&OBST XB=741.18,771.12,1906.53,1936.51,-2.00,0.00 SURF_ID='Water' /
&OBST XB=771.12,801.06,1906.53,1936.51,-2.00,0.00 SURF_ID='Water' /
&OBST XB=801.06,831.00,1906.53,1936.51,-2.00,0.00 SURF_ID='Water' /
&OBST XB=831.00,860.94,1906.53,1936.51,-2.00,0.00 SURF_ID='Water' /
&OBST XB=860.94,890.88,1906.53,1936.51,-2.00,0.00 SURF_ID='Water' /
&OBST XB=890.88,920.82,1906.53,1936.51,-2.00,0.00 SURF_ID='Water' /
&OBST XB=920.82,950.76,1906.53,1936.51,-2.00,0.00 SURF_ID='Water' /
&OBST XB=950.76,980.69,1906.53,1936.51,-2.00,0.00 SURF_ID='Water' /
&OBST XB=980.69,1010.63,1906.53,1936.51,-2.00,0.00 SURF_ID='Water' /
&OBST XB=1010.63,1040.57,1906.53,1936.51,-2.00,0.00 SURF_ID='Water' /
&OBST XB=1040.57,1070.51,1906.53,1936.51,-2.00,0.00 SURF_ID='Water' /
&OBST XB=1070.51,1100.45,1906.53,1936.51,-2.00,0.00 SURF_ID='Water' /
&OBST XB=1100.45,1130.39,1906.53,1936.51,-2.00,0.00 SURF_ID='Water' /
&OBST XB=1130.39,1160.33,1906.53,1936.51,-2.00,0.00 SURF_ID='Water' /
&OBST XB=1160.33,1190.27,1906.53,1936.51,-2.00,0.00 SURF_ID='Water' /
&OBST XB=1190.27,1220.20,1906.53,1936.51,-2.00,0.00 SURF_ID='Water' /
&OBST XB=1220.20,1250.14,1906.53,1936.51,-2.00,0.00 SURF_ID='Water' /
&OBST XB=1250.14,1280.08,1906.53,1936.51,-2.00,0.00 SURF_ID='Water' /
&OBST XB=1280.08,1310.02,1906.53,1936.51,-2.00,0.00 SURF_ID='Water' /
&OBST XB=1310.02,1339.96,1906.53,1936.51,-2.00,0.00 SURF_ID='Water' /
&OBST XB=1339.96,1369.90,1906.53,1936.51,-2.00,0.00 SURF_ID='Water' /
&OBST XB=1369.90,1399.84,1906.53,1936.51,-2.00,0.00 SURF_ID='Water' /
&OBST XB=1399.84,1429.78,1906.53,1936.51,-2.00,0.00 SURF_ID='Water' /
&OBST XB=-2252.70,-2222.76,1876.54,1906.53,-2.00,84.22 SURF_ID='A02' /
&OBST XB=-2222.76,-2192.82,1876.54,1906.53,-2.00,89.05 SURF_ID='A10' /
&OBST XB=-2192.82,-2162.88,1876.54,1906.53,-2.00,97.72 SURF_ID='A05' /
&OBST XB=-2162.88,-2132.94,1876.54,1906.53,-2.00,110.06 SURF_ID='A05' /
&OBST XB=-2132.94,-2103.00,1876.54,1906.53,-2.00,121.15 SURF_ID='A05' /
&OBST XB=-2103.00,-2073.07,1876.54,1906.53,-2.00,129.73 SURF_ID='A05' /
&OBST XB=-2073.07,-2043.13,1876.54,1906.53,-2.00,135.53 SURF_ID='A05' /
&OBST XB=-2043.13,-2013.19,1876.54,1906.53,-2.00,140.76 SURF_ID='A05' /
&OBST XB=-2013.19,-1983.25,1876.54,1906.53,-2.00,149.44 SURF_ID='A05' /
&OBST XB=-1983.25,-1953.31,1876.54,1906.53,-2.00,161.32 SURF_ID='A05' /
&OBST XB=-1953.31,-1923.37,1876.54,1906.53,-2.00,171.57 SURF_ID='A05' /
&OBST XB=-1923.37,-1893.43,1876.54,1906.53,-2.00,178.80 SURF_ID='A05' /
&OBST XB=-1893.43,-1863.49,1876.54,1906.53,-2.00,187.95 SURF_ID='A05' /
&OBST XB=-1863.49,-1833.55,1876.54,1906.53,-2.00,198.66 SURF_ID='A05' /
&OBST XB=-1833.55,-1803.62,1876.54,1906.53,-2.00,208.57 SURF_ID='A05' /
&OBST XB=-1803.62,-1773.68,1876.54,1906.53,-2.00,216.85 SURF_ID='A05' /
&OBST XB=-1773.68,-1743.74,1876.54,1906.53,-2.00,225.47 SURF_ID='A05' /
&OBST XB=-1743.74,-1713.80,1876.54,1906.53,-2.00,234.43 SURF_ID='A02' /
&OBST XB=-1713.80,-1683.86,1876.54,1906.53,-2.00,245.48 SURF_ID='A02' /
&OBST XB=-1683.86,-1653.92,1876.54,1906.53,-2.00,254.99 SURF_ID='A02' /
&OBST XB=-1653.92,-1623.98,1876.54,1906.53,-2.00,263.26 SURF_ID='A05' /
&OBST XB=-1623.98,-1594.04,1876.54,1906.53,-2.00,271.64 SURF_ID='A05' /
&OBST XB=-1594.04,-1564.11,1876.54,1906.53,-2.00,280.32 SURF_ID='A02' /
&OBST XB=-1564.11,-1534.17,1876.54,1906.53,-2.00,289.09 SURF_ID='A02' /
&OBST XB=-1534.17,-1504.23,1876.54,1906.53,-2.00,295.90 SURF_ID='A05' /
&OBST XB=-1504.23,-1474.29,1876.54,1906.53,-2.00,298.04 SURF_ID='A05' /
&OBST XB=-1474.29,-1444.35,1876.54,1906.53,-2.00,296.18 SURF_ID='A05' /
&OBST XB=-1444.35,-1414.41,1876.54,1906.53,-2.00,292.50 SURF_ID='A05' /
&OBST XB=-1414.41,-1384.47,1876.54,1906.53,-2.00,288.82 SURF_ID='A05' /
&OBST XB=-1384.47,-1354.53,1876.54,1906.53,-2.00,289.77 SURF_ID='A02' /
&OBST XB=-1354.53,-1324.59,1876.54,1906.53,-2.00,292.46 SURF_ID='A05' /
&OBST XB=-1324.59,-1294.66,1876.54,1906.53,-2.00,294.22 SURF_ID='A05' /
&OBST XB=-1294.66,-1264.72,1876.54,1906.53,-2.00,292.33 SURF_ID='A05' /
&OBST XB=-1264.72,-1234.78,1876.54,1906.53,-2.00,287.90 SURF_ID='A05' /
&OBST XB=-1234.78,-1204.84,1876.54,1906.53,-2.00,281.22 SURF_ID='A05' /
&OBST XB=-1204.84,-1174.90,1876.54,1906.53,-2.00,269.93 SURF_ID='A05' /
&OBST XB=-1174.90,-1144.96,1876.54,1906.53,-2.00,259.94 SURF_ID='A05' /
&OBST XB=-1144.96,-1115.02,1876.54,1906.53,-2.00,250.44 SURF_ID='A02' /
&OBST XB=-1115.02,-1085.08,1876.54,1906.53,-2.00,247.52 SURF_ID='A02' /
&OBST XB=-1085.08,-1055.15,1876.54,1906.53,-2.00,245.89 SURF_ID='A02' /
&OBST XB=-1055.15,-1025.21,1876.54,1906.53,-2.00,241.62 SURF_ID='A05' /
&OBST XB=-1025.21,-995.27,1876.54,1906.53,-2.00,238.94 SURF_ID='A05' /
&OBST XB=-995.27,-965.33,1876.54,1906.53,-2.00,238.08 SURF_ID='A02' /
&OBST XB=-965.33,-935.39,1876.54,1906.53,-2.00,235.83 SURF_ID='A05' /
&OBST XB=-935.39,-905.45,1876.54,1906.53,-2.00,239.01 SURF_ID='A05' /
&OBST XB=-905.45,-875.51,1876.54,1906.53,-2.00,250.65 SURF_ID='A05' /
&OBST XB=-875.51,-845.57,1876.54,1906.53,-2.00,265.78 SURF_ID='A05' /
&OBST XB=-845.57,-815.63,1876.54,1906.53,-2.00,279.56 SURF_ID='A05' /
&OBST XB=-815.63,-785.70,1876.54,1906.53,-2.00,290.82 SURF_ID='A05' /
&OBST XB=-785.70,-755.76,1876.54,1906.53,-2.00,296.00 SURF_ID='Urban' /
&OBST XB=-755.76,-725.82,1876.54,1906.53,-2.00,293.42 SURF_ID='Urban' /
&OBST XB=-725.82,-695.88,1876.54,1906.53,-2.00,280.36 SURF_ID='Urban' /
&OBST XB=-695.88,-665.94,1876.54,1906.53,-2.00,263.37 SURF_ID='Urban' /
&OBST XB=-665.94,-636.00,1876.54,1906.53,-2.00,244.67 SURF_ID='A05' /
&OBST XB=-636.00,-606.06,1876.54,1906.53,-2.00,226.31 SURF_ID='A05' /
&OBST XB=-606.06,-576.12,1876.54,1906.53,-2.00,208.32 SURF_ID='Urban' /
&OBST XB=-576.12,-546.19,1876.54,1906.53,-2.00,189.17 SURF_ID='A08' /
&OBST XB=-546.19,-516.25,1876.54,1906.53,-2.00,176.81 SURF_ID='A09' /
&OBST XB=-516.25,-486.31,1876.54,1906.53,-2.00,166.32 SURF_ID='Urban' /
&OBST XB=-486.31,-456.37,1876.54,1906.53,-2.00,150.30 SURF_ID='Urban' /
&OBST XB=-456.37,-426.43,1876.54,1906.53,-2.00,133.59 SURF_ID='A08' /
&OBST XB=-426.43,-396.49,1876.54,1906.53,-2.00,120.02 SURF_ID='A08' /
&OBST XB=-396.49,-366.55,1876.54,1906.53,-2.00,113.49 SURF_ID='A08' /
&OBST XB=-366.55,-336.61,1876.54,1906.53,-2.00,102.71 SURF_ID='Urban' /
&OBST XB=-336.61,-306.67,1876.54,1906.53,-2.00,88.42 SURF_ID='A05' /
&OBST XB=-306.67,-276.74,1876.54,1906.53,-2.00,80.14 SURF_ID='A05' /
&OBST XB=-276.74,-246.80,1876.54,1906.53,-2.00,71.95 SURF_ID='Urban' /
&OBST XB=-246.80,-216.86,1876.54,1906.53,-2.00,63.63 SURF_ID='Urban' /
&OBST XB=-216.86,-186.92,1876.54,1906.53,-2.00,59.25 SURF_ID='Urban' /
&OBST XB=-186.92,-156.98,1876.54,1906.53,-2.00,56.97 SURF_ID='Urban' /
&OBST XB=-156.98,-127.04,1876.54,1906.53,-2.00,54.34 SURF_ID='Urban' /
&OBST XB=-127.04,-97.10,1876.54,1906.53,-2.00,49.37 SURF_ID='Urban' /
&OBST XB=-97.10,-67.16,1876.54,1906.53,-2.00,44.76 SURF_ID='Urban' /
&OBST XB=-67.16,-37.23,1876.54,1906.53,-2.00,39.92 SURF_ID='Urban' /
&OBST XB=-37.23,-7.29,1876.54,1906.53,-2.00,34.65 SURF_ID='Urban' /
&OBST XB=-7.29,22.65,1876.54,1906.53,-2.00,30.95 SURF_ID='Urban' /
&OBST XB=22.65,52.59,1876.54,1906.53,-2.00,27.29 SURF_ID='Urban' /
&OBST XB=52.59,82.53,1876.54,1906.53,-2.00,24.56 SURF_ID='Urban' /
&OBST XB=82.53,112.47,1876.54,1906.53,-2.00,21.20 SURF_ID='Urban' /
&OBST XB=112.47,142.41,1876.54,1906.53,-2.00,17.24 SURF_ID='Urban' /
&OBST XB=142.41,172.35,1876.54,1906.53,-2.00,14.01 SURF_ID='Urban' /
&OBST XB=172.35,202.29,1876.54,1906.53,-2.00,11.37 SURF_ID='Urban' /
&OBST XB=202.29,232.22,1876.54,1906.53,-2.00,8.92 SURF_ID='Urban' /
&OBST XB=232.22,262.16,1876.54,1906.53,-2.00,5.99 SURF_ID='Urban' /
&OBST XB=262.16,292.10,1876.54,1906.53,-2.00,3.58 SURF_ID='Urban' /
&OBST XB=292.10,322.04,1876.54,1906.53,-2.00,1.40 SURF_ID='Urban' /
&OBST XB=322.04,351.98,1876.54,1906.53,-2.00,0.00 SURF_ID='Urban' /
&OBST XB=351.98,381.92,1876.54,1906.53,-2.00,0.00 SURF_ID='A05' /
&OBST XB=381.92,411.86,1876.54,1906.53,-2.00,0.00 SURF_ID='Water' /
&OBST XB=411.86,441.80,1876.54,1906.53,-2.00,0.00 SURF_ID='Water' /
&OBST XB=441.80,471.73,1876.54,1906.53,-2.00,0.00 SURF_ID='Water' /
&OBST XB=471.73,501.67,1876.54,1906.53,-2.00,0.00 SURF_ID='Water' /
&OBST XB=501.67,531.61,1876.54,1906.53,-2.00,0.00 SURF_ID='Water' /
&OBST XB=531.61,561.55,1876.54,1906.53,-2.00,0.00 SURF_ID='Water' /
&OBST XB=561.55,591.49,1876.54,1906.53,-2.00,0.00 SURF_ID='Water' /
&OBST XB=591.49,621.43,1876.54,1906.53,-2.00,0.00 SURF_ID='Water' /
&OBST XB=621.43,651.37,1876.54,1906.53,-2.00,0.00 SURF_ID='Water' /
&OBST XB=651.37,681.31,1876.54,1906.53,-2.00,0.00 SURF_ID='Water' /
&OBST XB=681.31,711.24,1876.54,1906.53,-2.00,0.00 SURF_ID='Water' /
&OBST XB=711.24,741.18,1876.54,1906.53,-2.00,0.00 SURF_ID='Water' /
&OBST XB=741.18,771.12,1876.54,1906.53,-2.00,0.00 SURF_ID='Water' /
&OBST XB=771.12,801.06,1876.54,1906.53,-2.00,0.00 SURF_ID='Water' /
&OBST XB=801.06,831.00,1876.54,1906.53,-2.00,0.00 SURF_ID='Water' /
&OBST XB=831.00,860.94,1876.54,1906.53,-2.00,0.00 SURF_ID='Water' /
&OBST XB=860.94,890.88,1876.54,1906.53,-2.00,0.00 SURF_ID='Water' /
&OBST XB=890.88,920.82,1876.54,1906.53,-2.00,0.00 SURF_ID='Water' /
&OBST XB=920.82,950.76,1876.54,1906.53,-2.00,0.00 SURF_ID='Water' /
&OBST XB=950.76,980.69,1876.54,1906.53,-2.00,0.00 SURF_ID='Water' /
&OBST XB=980.69,1010.63,1876.54,1906.53,-2.00,0.00 SURF_ID='Water' /
&OBST XB=1010.63,1040.57,1876.54,1906.53,-2.00,0.00 SURF_ID='Water' /
&OBST XB=1040.57,1070.51,1876.54,1906.53,-2.00,0.00 SURF_ID='Water' /
&OBST XB=1070.51,1100.45,1876.54,1906.53,-2.00,0.00 SURF_ID='Water' /
&OBST XB=1100.45,1130.39,1876.54,1906.53,-2.00,0.00 SURF_ID='Water' /
&OBST XB=1130.39,1160.33,1876.54,1906.53,-2.00,0.00 SURF_ID='Water' /
&OBST XB=1160.33,1190.27,1876.54,1906.53,-2.00,0.00 SURF_ID='Water' /
&OBST XB=1190.27,1220.20,1876.54,1906.53,-2.00,0.00 SURF_ID='Water' /
&OBST XB=1220.20,1250.14,1876.54,1906.53,-2.00,0.00 SURF_ID='Water' /
&OBST XB=1250.14,1280.08,1876.54,1906.53,-2.00,0.00 SURF_ID='Water' /
&OBST XB=1280.08,1310.02,1876.54,1906.53,-2.00,0.00 SURF_ID='Water' /
&OBST XB=1310.02,1339.96,1876.54,1906.53,-2.00,0.00 SURF_ID='Water' /
&OBST XB=1339.96,1369.90,1876.54,1906.53,-2.00,0.00 SURF_ID='Water' /
&OBST XB=1369.90,1399.84,1876.54,1906.53,-2.00,0.00 SURF_ID='Water' /
&OBST XB=1399.84,1429.78,1876.54,1906.53,-2.00,0.00 SURF_ID='Water' /
&OBST XB=-2252.70,-2222.76,1846.56,1876.54,-2.00,87.49 SURF_ID='A10' /
&OBST XB=-2222.76,-2192.82,1846.56,1876.54,-2.00,92.48 SURF_ID='A05' /
&OBST XB=-2192.82,-2162.88,1846.56,1876.54,-2.00,100.69 SURF_ID='A05' /
&OBST XB=-2162.88,-2132.94,1846.56,1876.54,-2.00,108.52 SURF_ID='A05' /
&OBST XB=-2132.94,-2103.00,1846.56,1876.54,-2.00,116.95 SURF_ID='A05' /
&OBST XB=-2103.00,-2073.07,1846.56,1876.54,-2.00,123.93 SURF_ID='A05' /
&OBST XB=-2073.07,-2043.13,1846.56,1876.54,-2.00,128.29 SURF_ID='A05' /
&OBST XB=-2043.13,-2013.19,1846.56,1876.54,-2.00,136.37 SURF_ID='A05' /
&OBST XB=-2013.19,-1983.25,1846.56,1876.54,-2.00,145.72 SURF_ID='A05' /
&OBST XB=-1983.25,-1953.31,1846.56,1876.54,-2.00,154.89 SURF_ID='A05' /
&OBST XB=-1953.31,-1923.37,1846.56,1876.54,-2.00,162.40 SURF_ID='A05' /
&OBST XB=-1923.37,-1893.43,1846.56,1876.54,-2.00,173.81 SURF_ID='A05' /
&OBST XB=-1893.43,-1863.49,1846.56,1876.54,-2.00,183.44 SURF_ID='A05' /
&OBST XB=-1863.49,-1833.55,1846.56,1876.54,-2.00,192.94 SURF_ID='A05' /
&OBST XB=-1833.55,-1803.62,1846.56,1876.54,-2.00,202.55 SURF_ID='A05' /
&OBST XB=-1803.62,-1773.68,1846.56,1876.54,-2.00,210.82 SURF_ID='A05' /
&OBST XB=-1773.68,-1743.74,1846.56,1876.54,-2.00,219.44 SURF_ID='A02' /
&OBST XB=-1743.74,-1713.80,1846.56,1876.54,-2.00,228.80 SURF_ID='A05' /
&OBST XB=-1713.80,-1683.86,1846.56,1876.54,-2.00,238.89 SURF_ID='A02' /
&OBST XB=-1683.86,-1653.92,1846.56,1876.54,-2.00,248.60 SURF_ID='A05' /
&OBST XB=-1653.92,-1623.98,1846.56,1876.54,-2.00,255.80 SURF_ID='A02' /
&OBST XB=-1623.98,-1594.04,1846.56,1876.54,-2.00,263.44 SURF_ID='A02' /
&OBST XB=-1594.04,-1564.11,1846.56,1876.54,-2.00,272.07 SURF_ID='A05' /
&OBST XB=-1564.11,-1534.17,1846.56,1876.54,-2.00,281.40 SURF_ID='A05' /
&OBST XB=-1534.17,-1504.23,1846.56,1876.54,-2.00,288.79 SURF_ID='A05' /
&OBST XB=-1504.23,-1474.29,1846.56,1876.54,-2.00,290.64 SURF_ID='A05' /
&OBST XB=-1474.29,-1444.35,1846.56,1876.54,-2.00,288.21 SURF_ID='A05' /
&OBST XB=-1444.35,-1414.41,1846.56,1876.54,-2.00,282.64 SURF_ID='A05' /
&OBST XB=-1414.41,-1384.47,1846.56,1876.54,-2.00,278.00 SURF_ID='A05' /
&OBST XB=-1384.47,-1354.53,1846.56,1876.54,-2.00,278.39 SURF_ID='A05' /
&OBST XB=-1354.53,-1324.59,1846.56,1876.54,-2.00,281.39 SURF_ID='A05' /
&OBST XB=-1324.59,-1294.66,1846.56,1876.54,-2.00,283.09 SURF_ID='A02' /
&OBST XB=-1294.66,-1264.72,1846.56,1876.54,-2.00,282.38 SURF_ID='A05' /
&OBST XB=-1264.72,-1234.78,1846.56,1876.54,-2.00,280.78 SURF_ID='A05' /
&OBST XB=-1234.78,-1204.84,1846.56,1876.54,-2.00,275.85 SURF_ID='A05' /
&OBST XB=-1204.84,-1174.90,1846.56,1876.54,-2.00,265.92 SURF_ID='A05' /
&OBST XB=-1174.90,-1144.96,1846.56,1876.54,-2.00,254.27 SURF_ID='A02' /
&OBST XB=-1144.96,-1115.02,1846.56,1876.54,-2.00,244.65 SURF_ID='A02' /
&OBST XB=-1115.02,-1085.08,1846.56,1876.54,-2.00,238.75 SURF_ID='A02' /
&OBST XB=-1085.08,-1055.15,1846.56,1876.54,-2.00,236.31 SURF_ID='A05' /
&OBST XB=-1055.15,-1025.21,1846.56,1876.54,-2.00,231.69 SURF_ID='A05' /
&OBST XB=-1025.21,-995.27,1846.56,1876.54,-2.00,226.35 SURF_ID='A05' /
&OBST XB=-995.27,-965.33,1846.56,1876.54,-2.00,223.49 SURF_ID='A02' /
&OBST XB=-965.33,-935.39,1846.56,1876.54,-2.00,223.66 SURF_ID='A05' /
&OBST XB=-935.39,-905.45,1846.56,1876.54,-2.00,229.37 SURF_ID='A05' /
&OBST XB=-905.45,-875.51,1846.56,1876.54,-2.00,242.47 SURF_ID='A05' /
&OBST XB=-875.51,-845.57,1846.56,1876.54,-2.00,256.49 SURF_ID='A05' /
&OBST XB=-845.57,-815.63,1846.56,1876.54,-2.00,271.44 SURF_ID='A05' /
&OBST XB=-815.63,-785.70,1846.56,1876.54,-2.00,282.97 SURF_ID='A05' /
&OBST XB=-785.70,-755.76,1846.56,1876.54,-2.00,289.62 SURF_ID='A05' /
&OBST XB=-755.76,-725.82,1846.56,1876.54,-2.00,292.48 SURF_ID='Urban' /
&OBST XB=-725.82,-695.88,1846.56,1876.54,-2.00,283.85 SURF_ID='Urban' /
&OBST XB=-695.88,-665.94,1846.56,1876.54,-2.00,269.84 SURF_ID='Urban' /
&OBST XB=-665.94,-636.00,1846.56,1876.54,-2.00,252.95 SURF_ID='A05' /
&OBST XB=-636.00,-606.06,1846.56,1876.54,-2.00,232.92 SURF_ID='A05' /
&OBST XB=-606.06,-576.12,1846.56,1876.54,-2.00,212.02 SURF_ID='Urban' /
&OBST XB=-576.12,-546.19,1846.56,1876.54,-2.00,191.42 SURF_ID='Urban' /
&OBST XB=-546.19,-516.25,1846.56,1876.54,-2.00,177.80 SURF_ID='A08' /
&OBST XB=-516.25,-486.31,1846.56,1876.54,-2.00,168.47 SURF_ID='Urban' /
&OBST XB=-486.31,-456.37,1846.56,1876.54,-2.00,156.05 SURF_ID='Urban' /
&OBST XB=-456.37,-426.43,1846.56,1876.54,-2.00,142.80 SURF_ID='A08' /
&OBST XB=-426.43,-396.49,1846.56,1876.54,-2.00,134.25 SURF_ID='A08' /
&OBST XB=-396.49,-366.55,1846.56,1876.54,-2.00,127.69 SURF_ID='A08' /
&OBST XB=-366.55,-336.61,1846.56,1876.54,-2.00,117.41 SURF_ID='A08' /
&OBST XB=-336.61,-306.67,1846.56,1876.54,-2.00,103.17 SURF_ID='Urban' /
&OBST XB=-306.67,-276.74,1846.56,1876.54,-2.00,89.07 SURF_ID='A05' /
&OBST XB=-276.74,-246.80,1846.56,1876.54,-2.00,73.42 SURF_ID='Urban' /
&OBST XB=-246.80,-216.86,1846.56,1876.54,-2.00,61.32 SURF_ID='Urban' /
&OBST XB=-216.86,-186.92,1846.56,1876.54,-2.00,54.44 SURF_ID='Urban' /
&OBST XB=-186.92,-156.98,1846.56,1876.54,-2.00,50.75 SURF_ID='Urban' /
&OBST XB=-156.98,-127.04,1846.56,1876.54,-2.00,46.87 SURF_ID='Urban' /
&OBST XB=-127.04,-97.10,1846.56,1876.54,-2.00,42.16 SURF_ID='Urban' /
&OBST XB=-97.10,-67.16,1846.56,1876.54,-2.00,37.91 SURF_ID='Urban' /
&OBST XB=-67.16,-37.23,1846.56,1876.54,-2.00,34.47 SURF_ID='Urban' /
&OBST XB=-37.23,-7.29,1846.56,1876.54,-2.00,30.65 SURF_ID='Urban' /
&OBST XB=-7.29,22.65,1846.56,1876.54,-2.00,27.75 SURF_ID='Urban' /
&OBST XB=22.65,52.59,1846.56,1876.54,-2.00,24.95 SURF_ID='Urban' /
&OBST XB=52.59,82.53,1846.56,1876.54,-2.00,22.13 SURF_ID='Urban' /
&OBST XB=82.53,112.47,1846.56,1876.54,-2.00,18.17 SURF_ID='Urban' /
&OBST XB=112.47,142.41,1846.56,1876.54,-2.00,14.50 SURF_ID='Urban' /
&OBST XB=142.41,172.35,1846.56,1876.54,-2.00,12.23 SURF_ID='Urban' /
&OBST XB=172.35,202.29,1846.56,1876.54,-2.00,10.00 SURF_ID='Urban' /
&OBST XB=202.29,232.22,1846.56,1876.54,-2.00,7.55 SURF_ID='Urban' /
&OBST XB=232.22,262.16,1846.56,1876.54,-2.00,5.60 SURF_ID='Urban' /
&OBST XB=262.16,292.10,1846.56,1876.54,-2.00,3.71 SURF_ID='Urban' /
&OBST XB=292.10,322.04,1846.56,1876.54,-2.00,1.81 SURF_ID='Urban' /
&OBST XB=322.04,351.98,1846.56,1876.54,-2.00,0.00 SURF_ID='Urban' /
&OBST XB=351.98,381.92,1846.56,1876.54,-2.00,0.00 SURF_ID='A05' /
&OBST XB=381.92,411.86,1846.56,1876.54,-2.00,0.00 SURF_ID='A05' /
&OBST XB=411.86,441.80,1846.56,1876.54,-2.00,0.00 SURF_ID='Water' /
&OBST XB=441.80,471.73,1846.56,1876.54,-2.00,0.00 SURF_ID='Water' /
&OBST XB=471.73,501.67,1846.56,1876.54,-2.00,0.00 SURF_ID='Water' /
&OBST XB=501.67,531.61,1846.56,1876.54,-2.00,0.00 SURF_ID='Water' /
&OBST XB=531.61,561.55,1846.56,1876.54,-2.00,0.00 SURF_ID='Water' /
&OBST XB=561.55,591.49,1846.56,1876.54,-2.00,0.00 SURF_ID='Water' /
&OBST XB=591.49,621.43,1846.56,1876.54,-2.00,0.00 SURF_ID='Water' /
&OBST XB=621.43,651.37,1846.56,1876.54,-2.00,0.00 SURF_ID='Water' /
&OBST XB=651.37,681.31,1846.56,1876.54,-2.00,0.00 SURF_ID='Water' /
&OBST XB=681.31,711.24,1846.56,1876.54,-2.00,0.00 SURF_ID='Water' /
&OBST XB=711.24,741.18,1846.56,1876.54,-2.00,0.00 SURF_ID='Water' /
&OBST XB=741.18,771.12,1846.56,1876.54,-2.00,0.00 SURF_ID='Water' /
&OBST XB=771.12,801.06,1846.56,1876.54,-2.00,0.00 SURF_ID='Water' /
&OBST XB=801.06,831.00,1846.56,1876.54,-2.00,0.00 SURF_ID='Water' /
&OBST XB=831.00,860.94,1846.56,1876.54,-2.00,0.00 SURF_ID='Water' /
&OBST XB=860.94,890.88,1846.56,1876.54,-2.00,0.00 SURF_ID='Water' /
&OBST XB=890.88,920.82,1846.56,1876.54,-2.00,0.00 SURF_ID='Water' /
&OBST XB=920.82,950.76,1846.56,1876.54,-2.00,0.00 SURF_ID='Water' /
&OBST XB=950.76,980.69,1846.56,1876.54,-2.00,0.00 SURF_ID='Water' /
&OBST XB=980.69,1010.63,1846.56,1876.54,-2.00,0.00 SURF_ID='Water' /
&OBST XB=1010.63,1040.57,1846.56,1876.54,-2.00,0.00 SURF_ID='Water' /
&OBST XB=1040.57,1070.51,1846.56,1876.54,-2.00,0.00 SURF_ID='Water' /
&OBST XB=1070.51,1100.45,1846.56,1876.54,-2.00,0.00 SURF_ID='Water' /
&OBST XB=1100.45,1130.39,1846.56,1876.54,-2.00,0.00 SURF_ID='Water' /
&OBST XB=1130.39,1160.33,1846.56,1876.54,-2.00,0.00 SURF_ID='Water' /
&OBST XB=1160.33,1190.27,1846.56,1876.54,-2.00,0.00 SURF_ID='Water' /
&OBST XB=1190.27,1220.20,1846.56,1876.54,-2.00,0.00 SURF_ID='Water' /
&OBST XB=1220.20,1250.14,1846.56,1876.54,-2.00,0.00 SURF_ID='Water' /
&OBST XB=1250.14,1280.08,1846.56,1876.54,-2.00,0.00 SURF_ID='Water' /
&OBST XB=1280.08,1310.02,1846.56,1876.54,-2.00,0.00 SURF_ID='Water' /
&OBST XB=1310.02,1339.96,1846.56,1876.54,-2.00,0.00 SURF_ID='Water' /
&OBST XB=1339.96,1369.90,1846.56,1876.54,-2.00,0.00 SURF_ID='Water' /
&OBST XB=1369.90,1399.84,1846.56,1876.54,-2.00,0.00 SURF_ID='Water' /
&OBST XB=1399.84,1429.78,1846.56,1876.54,-2.00,0.00 SURF_ID='Water' /
&OBST XB=-2252.70,-2222.76,1816.57,1846.56,-2.00,91.90 SURF_ID='A05' /
&OBST XB=-2222.76,-2192.82,1816.57,1846.56,-2.00,96.50 SURF_ID='A05' /
&OBST XB=-2192.82,-2162.88,1816.57,1846.56,-2.00,100.86 SURF_ID='A05' /
&OBST XB=-2162.88,-2132.94,1816.57,1846.56,-2.00,106.29 SURF_ID='A05' /
&OBST XB=-2132.94,-2103.00,1816.57,1846.56,-2.00,116.09 SURF_ID='A05' /
&OBST XB=-2103.00,-2073.07,1816.57,1846.56,-2.00,125.01 SURF_ID='A05' /