! Generated by qgis2fds <0.90> on QGIS <3.22.2-Biaowiea>
! QGIS file: <....verification/tests/test_cern_meyrin/cern_meyrin.qgs>
! Date: <mer, 29 dic 2021, 10:07:12>
! Selected UTM CRS: <WGS 84 / UTM zone 32N>
! Domain origin: <272445.5, 5124167.4>
!   <http://www.openstreetmap.org/?mlat=46.2329766885&mlon=6.048780648499999&zoom=12>
! Domain extent: <272383.9,5124111.5 : 272507.0,5124223.3>
! DEM layer: <MN_Surface_2017_GRID> with 1.0m resolution
! Landuse layer: <none>
! Fire layer: <none>
! Landuse type file: <none>
! Wind file: <none>

&HEAD CHID='cern_meyrin' TITLE='Description of cern_meyrin' /

! MISC LEVEL_SET_MODE parameter
! 1: Wind not affected by the terrain. No fire.
! 2: Wind field established over the terrain, then frozen. No fire.
! 3: Wind field following the terrain, no fire.
! 4: Wind and fire fully-coupled.

&MISC ORIGIN_LAT=46.2329767
      ORIGIN_LON=6.0487806
      NORTH_BEARING=0.
      TERRAIN_IMAGE='cern_meyrin_tex.png'
      LEVEL_SET_MODE=4 /

&TIME T_END=0. /

! Example REAC, used when LEVEL_SET_MODE=4
&REAC ID='Wood' SOOT_YIELD=0.02 O=2.5 C=3.4 H=6.2
      HEAT_OF_COMBUSTION=17700. /

! Pressure solver
!PRES VELOCITY_TOLERANCE=1.E-6 MAX_PRESSURE_ITERATIONS=100 /

! Radiation solver
!RADI RADIATION=F /

! Domain and its boundary conditions
! 2 x 2 meshes of 62m x 56m x 32m size and 104005 cells each
&MULT ID='Meshes'
      DX=61.534 I_LOWER=0 I_UPPER=1
      DY=55.927 J_LOWER=0 J_UPPER=1 /
&MESH IJK=61,55,31 MULT_ID='Meshes'
      XB=-61.535,-0.001,-55.927,0.000,433.140,464.644 /
&VENT ID='Domain BC XMIN' DB='XMIN' SURF_ID='OPEN' /
&VENT ID='Domain BC XMAX' DB='XMAX' SURF_ID='OPEN' /
&VENT ID='Domain BC YMIN' DB='YMIN' SURF_ID='OPEN' /
&VENT ID='Domain BC YMAX' DB='YMAX' SURF_ID='OPEN' /
&VENT ID='Domain BC ZMAX' DB='ZMAX' SURF_ID='OPEN' /

! Landuse boundary conditions


! Output quantities
&SLCF AGL_SLICE=1. QUANTITY='LEVEL SET VALUE' /
&SLCF AGL_SLICE=2. QUANTITY='VISIBILITY' /
&SLCF AGL_SLICE=2. QUANTITY='TEMPERATURE' VECTOR=T /
&SLCF AGL_SLICE=12. QUANTITY='VISIBILITY' /
&SLCF AGL_SLICE=12. QUANTITY='TEMPERATURE' VECTOR=T /
&SLCF PBX=0.000 QUANTITY='TEMPERATURE' VECTOR=T /
&SLCF PBY=0.000 QUANTITY='TEMPERATURE' VECTOR=T /

! Output for wind rose at origin
&DEVC ID='Origin_UV' XYZ=0.,0.,463.644 QUANTITY='U-VELOCITY' /
&DEVC ID='Origin_VV' XYZ=0.,0.,463.644 QUANTITY='V-VELOCITY' /
&DEVC ID='Origin_WV' XYZ=0.,0.,463.644 QUANTITY='W-VELOCITY' /

! Wind
&WIND SPEED=1., RAMP_SPEED_T='ws', RAMP_DIRECTION_T='wd' /
! Example ramps for wind speed and direction
&RAMP ID='ws', T=   0, F= 10. /
&RAMP ID='ws', T= 600, F= 10. /
&RAMP ID='ws', T=1200, F= 20. /
&RAMP ID='wd', T=   0, F=315. /
&RAMP ID='wd', T= 600, F=270. /
&RAMP ID='wd', T=1200, F=360. /

! Terrain (29222 OBSTs)
&OBST XB=-62.344803,-61.344838,59.279735,58.279775,0.000000,453.248993 SURF_ID='INERT' /
&OBST XB=-61.344840,-60.344875,59.260260,58.260299,0.000000,454.644012 SURF_ID='INERT' /
&OBST XB=-60.344877,-59.344913,59.240784,58.240824,0.000000,442.929993 SURF_ID='INERT' /
&OBST XB=-59.344915,-58.344950,59.221309,58.221348,0.000000,442.937988 SURF_ID='INERT' /
&OBST XB=-58.344952,-57.344987,59.201833,58.201873,0.000000,442.899994 SURF_ID='INERT' /
&OBST XB=-57.344989,-56.345025,59.182358,58.182397,0.000000,443.080994 SURF_ID='INERT' /
&OBST XB=-56.345027,-55.345062,59.162882,58.162921,0.000000,441.165009 SURF_ID='INERT' /
&OBST XB=-55.345064,-54.345099,59.143407,58.143446,0.000000,441.115997 SURF_ID='INERT' /
&OBST XB=-54.345101,-53.345137,59.123931,58.123970,0.000000,441.019989 SURF_ID='INERT' /
&OBST XB=-53.345139,-52.345174,59.104456,58.104495,0.000000,441.002991 SURF_ID='INERT' /
&OBST XB=-52.345176,-51.345211,59.084980,58.085019,0.000000,440.954010 SURF_ID='INERT' /
&OBST XB=-51.345213,-50.345249,59.065505,58.065544,0.000000,441.117004 SURF_ID='INERT' /
&OBST XB=-50.345251,-49.345286,59.046029,58.046068,0.000000,441.074005 SURF_ID='INERT' /
&OBST XB=-49.345288,-48.345323,59.026553,58.026593,0.000000,441.036987 SURF_ID='INERT' /
&OBST XB=-48.345325,-47.345361,59.007078,58.007117,0.000000,440.919006 SURF_ID='INERT' /
&OBST XB=-47.345363,-46.345398,58.987602,57.987642,0.000000,440.945007 SURF_ID='INERT' /
&OBST XB=-46.345400,-45.345436,58.968127,57.968166,0.000000,440.786011 SURF_ID='INERT' /
&OBST XB=-45.345438,-44.345473,58.948651,57.948691,0.000000,440.688995 SURF_ID='INERT' /
&OBST XB=-44.345475,-43.345510,58.929176,57.929215,0.000000,440.618988 SURF_ID='INERT' /
&OBST XB=-43.345512,-42.345548,58.909700,57.909739,0.000000,440.608002 SURF_ID='INERT' /
&OBST XB=-42.345550,-41.345585,58.890225,57.890264,0.000000,440.527008 SURF_ID='INERT' /
&OBST XB=-41.345587,-40.345623,58.870749,57.870788,0.000000,440.444000 SURF_ID='INERT' /
&OBST XB=-40.345625,-39.345660,58.851274,57.851313,0.000000,440.427002 SURF_ID='INERT' /
&OBST XB=-39.345662,-38.345697,58.831798,57.831837,0.000000,440.346008 SURF_ID='INERT' /
&OBST XB=-38.345699,-37.345735,58.812322,57.812362,0.000000,440.199005 SURF_ID='INERT' /
&OBST XB=-37.345737,-36.345772,58.792847,57.792886,0.000000,440.157990 SURF_ID='INERT' /
&OBST XB=-36.345774,-35.345810,58.773371,57.773411,0.000000,440.097992 SURF_ID='INERT' /
&OBST XB=-35.345812,-34.345847,58.753896,57.753935,0.000000,440.075012 SURF_ID='INERT' /
&OBST XB=-34.345849,-33.345885,58.734420,57.734459,0.000000,440.062988 SURF_ID='INERT' /
&OBST XB=-33.345887,-32.345922,58.714945,57.714984,0.000000,440.019989 SURF_ID='INERT' /
&OBST XB=-32.345924,-31.345959,58.695469,57.695508,0.000000,439.967010 SURF_ID='INERT' /
&OBST XB=-31.345962,-30.345997,58.675993,57.676033,0.000000,439.936005 SURF_ID='INERT' /
&OBST XB=-30.345999,-29.346034,58.656518,57.656557,0.000000,439.891998 SURF_ID='INERT' /
&OBST XB=-29.346037,-28.346072,58.637042,57.637082,0.000000,439.846008 SURF_ID='INERT' /
&OBST XB=-28.346074,-27.346109,58.617567,57.617606,0.000000,439.806000 SURF_ID='INERT' /
&OBST XB=-27.346112,-26.346147,58.598091,57.598130,0.000000,439.770996 SURF_ID='INERT' /
&OBST XB=-26.346149,-25.346184,58.578616,57.578655,0.000000,439.707001 SURF_ID='INERT' /
&OBST XB=-25.346187,-24.346222,58.559140,57.559179,0.000000,439.696014 SURF_ID='INERT' /
&OBST XB=-24.346224,-23.346259,58.539664,57.539704,0.000000,439.777008 SURF_ID='INERT' /
&OBST XB=-23.346262,-22.346297,58.520189,57.520228,0.000000,439.721008 SURF_ID='INERT' /
&OBST XB=-22.346299,-21.346334,58.500713,57.500753,0.000000,439.683014 SURF_ID='INERT' /
&OBST XB=-21.346337,-20.346372,58.481238,57.481277,0.000000,439.609985 SURF_ID='INERT' /
&OBST XB=-20.346374,-19.346409,58.461762,57.461801,0.000000,439.587006 SURF_ID='INERT' /
&OBST XB=-19.346412,-18.346447,58.442286,57.442326,0.000000,439.592010 SURF_ID='INERT' /
&OBST XB=-18.346449,-17.346484,58.422811,57.422850,0.000000,439.634003 SURF_ID='INERT' /
&OBST XB=-17.346487,-16.346522,58.403335,57.403375,0.000000,439.670013 SURF_ID='INERT' /
&OBST XB=-16.346524,-15.346560,58.383860,57.383899,0.000000,439.690002 SURF_ID='INERT' /
&OBST XB=-15.346562,-14.346597,58.364384,57.364423,0.000000,439.981995 SURF_ID='INERT' /
&OBST XB=-14.346599,-13.346635,58.344908,57.344948,0.000000,440.278992 SURF_ID='INERT' /
&OBST XB=-13.346637,-12.346672,58.325433,57.325472,0.000000,440.503998 SURF_ID='INERT' /
&OBST XB=-12.346674,-11.346710,58.305957,57.305997,0.000000,440.989014 SURF_ID='INERT' /
&OBST XB=-11.346712,-10.346747,58.286482,57.286521,0.000000,441.098999 SURF_ID='INERT' /
&OBST XB=-10.346750,-9.346785,58.267006,57.267045,0.000000,442.904999 SURF_ID='INERT' /
&OBST XB=-9.346787,-8.346823,58.247530,57.247570,0.000000,441.421997 SURF_ID='INERT' /
&OBST XB=-8.346825,-7.346860,58.228055,57.228094,0.000000,441.575989 SURF_ID='INERT' /
&OBST XB=-7.346862,-6.346898,58.208579,57.208619,0.000000,441.605988 SURF_ID='INERT' /
&OBST XB=-6.346900,-5.346935,58.189104,57.189143,0.000000,441.605988 SURF_ID='INERT' /
&OBST XB=-5.346938,-4.346973,58.169628,57.169667,0.000000,441.729004 SURF_ID='INERT' /
&OBST XB=-4.346975,-3.347011,58.150152,57.150192,0.000000,441.753998 SURF_ID='INERT' /
&OBST XB=-3.347013,-2.347048,58.130677,57.130716,0.000000,441.592010 SURF_ID='INERT' /
&OBST XB=-2.347051,-1.347086,58.111201,57.111240,0.000000,441.537994 SURF_ID='INERT' /
&OBST XB=-1.347088,-0.347123,58.091726,57.091765,0.000000,441.377014 SURF_ID='INERT' /
&OBST XB=-0.347126,0.652839,58.072250,57.072289,0.000000,441.339996 SURF_ID='INERT' /
&OBST XB=0.652837,1.652801,58.052774,57.052814,0.000000,441.270996 SURF_ID='INERT' /
&OBST XB=1.652799,2.652764,58.033299,57.033338,0.000000,442.191986 SURF_ID='INERT' /
&OBST XB=2.652761,3.652726,58.013823,57.013862,0.000000,441.328003 SURF_ID='INERT' /
&OBST XB=3.652724,4.652688,57.994347,56.994387,0.000000,442.213013 SURF_ID='INERT' /
&OBST XB=4.652686,5.652651,57.974872,56.974911,0.000000,443.144989 SURF_ID='INERT' /
&OBST XB=5.652648,6.652613,57.955396,56.955435,0.000000,441.385010 SURF_ID='INERT' /
&OBST XB=6.652611,7.652575,57.935921,56.935960,0.000000,441.339996 SURF_ID='INERT' /
&OBST XB=7.652573,8.652538,57.916445,56.916484,0.000000,442.109009 SURF_ID='INERT' /
&OBST XB=8.652535,9.652500,57.896969,56.897009,0.000000,441.282990 SURF_ID='INERT' /
&OBST XB=9.652498,10.652462,57.877494,56.877533,0.000000,441.165009 SURF_ID='INERT' /
&OBST XB=10.652460,11.652425,57.858018,56.858057,0.000000,441.139008 SURF_ID='INERT' /
&OBST XB=11.652422,12.652387,57.838542,56.838582,0.000000,441.153015 SURF_ID='INERT' /
&OBST XB=12.652384,13.652349,57.819067,56.819106,0.000000,441.171997 SURF_ID='INERT' /
&OBST XB=13.652347,14.652311,57.799591,56.799630,0.000000,441.123993 SURF_ID='INERT' /
&OBST XB=14.652309,15.652274,57.780115,56.780155,0.000000,441.049011 SURF_ID='INERT' /
&OBST XB=15.652271,16.652236,57.760640,56.760679,0.000000,439.450989 SURF_ID='INERT' /
&OBST XB=16.652234,17.652198,57.741164,56.741203,0.000000,439.431000 SURF_ID='INERT' /
&OBST XB=17.652196,18.652160,57.721688,56.721728,0.000000,439.377991 SURF_ID='INERT' /
&OBST XB=18.652158,19.652123,57.702213,56.702252,0.000000,439.372986 SURF_ID='INERT' /
&OBST XB=19.652120,20.652085,57.682737,56.682776,0.000000,439.368988 SURF_ID='INERT' /
&OBST XB=20.652083,21.652047,57.663261,56.663301,0.000000,437.585999 SURF_ID='INERT' /
&OBST XB=21.652045,22.652009,57.643786,56.643825,0.000000,435.730988 SURF_ID='INERT' /
&OBST XB=22.652007,23.651972,57.624310,56.624349,0.000000,435.704987 SURF_ID='INERT' /
&OBST XB=23.651969,24.651934,57.604834,56.604874,0.000000,435.671997 SURF_ID='INERT' /
&OBST XB=24.651931,25.651896,57.585359,56.585398,0.000000,435.678986 SURF_ID='INERT' /
&OBST XB=25.651894,26.651858,57.565883,56.565922,0.000000,435.713989 SURF_ID='INERT' /
&OBST XB=26.651856,27.651821,57.546407,56.546447,0.000000,435.720001 SURF_ID='INERT' /
&OBST XB=27.651818,28.651783,57.526932,56.526971,0.000000,435.734985 SURF_ID='INERT' /
&OBST XB=28.651780,29.651745,57.507456,56.507495,0.000000,435.944000 SURF_ID='INERT' /
&OBST XB=29.651742,30.651707,57.487980,56.488020,0.000000,435.897003 SURF_ID='INERT' /
&OBST XB=30.651705,31.651669,57.468505,56.468544,0.000000,435.877991 SURF_ID='INERT' /
&OBST XB=31.651667,32.651632,57.449029,56.449068,0.000000,435.873993 SURF_ID='INERT' /
&OBST XB=32.651629,33.651594,57.429553,56.429593,0.000000,435.820007 SURF_ID='INERT' /
&OBST XB=33.651591,34.651556,57.410078,56.410117,0.000000,435.781006 SURF_ID='INERT' /
&OBST XB=34.651553,35.651518,57.390602,56.390641,0.000000,435.772003 SURF_ID='INERT' /
&OBST XB=35.651516,36.651480,57.371126,56.371166,0.000000,435.738007 SURF_ID='INERT' /
&OBST XB=36.651478,37.651442,57.351651,56.351690,0.000000,435.700989 SURF_ID='INERT' /
&OBST XB=37.651440,38.651405,57.332175,56.332214,0.000000,435.622009 SURF_ID='INERT' /
&OBST XB=38.651402,39.651367,57.312699,56.312739,0.000000,435.589996 SURF_ID='INERT' /
&OBST XB=39.651364,40.651329,57.293224,56.293263,0.000000,435.528015 SURF_ID='INERT' /
&OBST XB=40.651326,41.651291,57.273748,56.273787,0.000000,435.489990 SURF_ID='INERT' /
&OBST XB=41.651288,42.651253,57.254272,56.254311,0.000000,435.479004 SURF_ID='INERT' /
&OBST XB=42.651250,43.651215,57.234796,56.234836,0.000000,435.450012 SURF_ID='INERT' /
&OBST XB=43.651213,44.651177,57.215321,56.215360,0.000000,440.966003 SURF_ID='INERT' /
&OBST XB=44.651175,45.651139,57.195845,56.195884,0.000000,440.988007 SURF_ID='INERT' /
&OBST XB=45.651137,46.651101,57.176369,56.176409,0.000000,440.927002 SURF_ID='INERT' /
&OBST XB=46.651099,47.651064,57.156894,56.156933,0.000000,440.816010 SURF_ID='INERT' /
&OBST XB=47.651061,48.651026,57.137418,56.137457,0.000000,440.813995 SURF_ID='INERT' /
&OBST XB=48.651023,49.650988,57.117942,56.117982,0.000000,440.772003 SURF_ID='INERT' /
&OBST XB=49.650985,50.650950,57.098467,56.098506,0.000000,440.787994 SURF_ID='INERT' /
&OBST XB=50.650947,51.650912,57.078991,56.079030,0.000000,440.764008 SURF_ID='INERT' /
&OBST XB=51.650909,52.650874,57.059515,56.059554,0.000000,440.787994 SURF_ID='INERT' /
&OBST XB=52.650871,53.650836,57.040039,56.040079,0.000000,440.727997 SURF_ID='INERT' /
&OBST XB=53.650833,54.650798,57.020564,56.020603,0.000000,440.765991 SURF_ID='INERT' /
&OBST XB=54.650795,55.650760,57.001088,56.001127,0.000000,440.733002 SURF_ID='INERT' /
&OBST XB=55.650758,56.650722,56.981612,55.981652,0.000000,440.712006 SURF_ID='INERT' /
&OBST XB=56.650720,57.650684,56.962137,55.962176,0.000000,440.968994 SURF_ID='INERT' /
&OBST XB=57.650682,58.650646,56.942661,55.942700,0.000000,440.795013 SURF_ID='INERT' /
&OBST XB=58.650644,59.650608,56.923185,55.923224,0.000000,440.977997 SURF_ID='INERT' /
&OBST XB=59.650606,60.650570,56.903709,55.903749,0.000000,440.864014 SURF_ID='INERT' /
&OBST XB=60.650568,61.650532,56.884234,55.884273,0.000000,440.795990 SURF_ID='INERT' /
&OBST XB=61.650530,62.650494,56.864758,55.864797,0.000000,440.847992 SURF_ID='INERT' /
&OBST XB=62.650492,63.650456,56.845282,55.845321,0.000000,440.842987 SURF_ID='INERT' /
&OBST XB=63.650454,64.650418,56.825806,55.825846,0.000000,440.929993 SURF_ID='INERT' /
&OBST XB=-62.364278,-61.364314,58.279773,57.279812,0.000000,454.584015 SURF_ID='INERT' /
&OBST XB=-61.364316,-60.364351,58.260297,57.260336,0.000000,454.621002 SURF_ID='INERT' /
&OBST XB=-60.364353,-59.364388,58.240822,57.240861,0.000000,442.934998 SURF_ID='INERT' /
&OBST XB=-59.364390,-58.364426,58.221346,57.221385,0.000000,442.946014 SURF_ID='INERT' /
&OBST XB=-58.364428,-57.364463,58.201871,57.201910,0.000000,442.894012 SURF_ID='INERT' /
&OBST XB=-57.364465,-56.364500,58.182395,57.182434,0.000000,441.225006 SURF_ID='INERT' /
&OBST XB=-56.364502,-55.364538,58.162920,57.162959,0.000000,441.162994 SURF_ID='INERT' /
&OBST XB=-55.364540,-54.364575,58.143444,57.143483,0.000000,441.145996 SURF_ID='INERT' /
&OBST XB=-54.364577,-53.364612,58.123968,57.124008,0.000000,441.053986 SURF_ID='INERT' /
&OBST XB=-53.364614,-52.364650,58.104493,57.104532,0.000000,441.028015 SURF_ID='INERT' /
&OBST XB=-52.364652,-51.364687,58.085017,57.085057,0.000000,441.140991 SURF_ID='INERT' /
&OBST XB=-51.364689,-50.364724,58.065542,57.065581,0.000000,441.196991 SURF_ID='INERT' /
&OBST XB=-50.364726,-49.364762,58.046066,57.046106,0.000000,441.141998 SURF_ID='INERT' /
&OBST XB=-49.364764,-48.364799,58.026591,57.026630,0.000000,441.148987 SURF_ID='INERT' /
&OBST XB=-48.364801,-47.364836,58.007115,57.007155,0.000000,441.130005 SURF_ID='INERT' /
&OBST XB=-47.364838,-46.364874,57.987640,56.987679,0.000000,441.078003 SURF_ID='INERT' /
&OBST XB=-46.364876,-45.364911,57.968164,56.968204,0.000000,440.962006 SURF_ID='INERT' /
&OBST XB=-45.364913,-44.364948,57.948689,56.948728,0.000000,440.859985 SURF_ID='INERT' /
&OBST XB=-44.364951,-43.364986,57.929213,56.929252,0.000000,440.744995 SURF_ID='INERT' /
&OBST XB=-43.364988,-42.365023,57.909738,56.909777,0.000000,440.604004 SURF_ID='INERT' /
&OBST XB=-42.365025,-41.365061,57.890262,56.890301,0.000000,440.537994 SURF_ID='INERT' /
&OBST XB=-41.365063,-40.365098,57.870786,56.870826,0.000000,440.509003 SURF_ID='INERT' /
&OBST XB=-40.365100,-39.365135,57.851311,56.851350,0.000000,440.522003 SURF_ID='INERT' /
&OBST XB=-39.365138,-38.365173,57.831835,56.831875,0.000000,440.420013 SURF_ID='INERT' /
&OBST XB=-38.365175,-37.365210,57.812360,56.812399,0.000000,440.321991 SURF_ID='INERT' /
&OBST XB=-37.365212,-36.365248,57.792884,56.792924,0.000000,440.196014 SURF_ID='INERT' /
&OBST XB=-36.365250,-35.365285,57.773409,56.773448,0.000000,440.102997 SURF_ID='INERT' /
&OBST XB=-35.365287,-34.365323,57.753933,56.753973,0.000000,440.039001 SURF_ID='INERT' /
&OBST XB=-34.365325,-33.365360,57.734458,56.734497,0.000000,440.002991 SURF_ID='INERT' /
&OBST XB=-33.365362,-32.365398,57.714982,56.715021,0.000000,439.980988 SURF_ID='INERT' /
&OBST XB=-32.365400,-31.365435,57.695506,56.695546,0.000000,439.945007 SURF_ID='INERT' /
&OBST XB=-31.365437,-30.365472,57.676031,56.676070,0.000000,439.917999 SURF_ID='INERT' /
&OBST XB=-30.365475,-29.365510,57.656555,56.656595,0.000000,439.876007 SURF_ID='INERT' /
&OBST XB=-29.365512,-28.365547,57.637080,56.637119,0.000000,439.847992 SURF_ID='INERT' /
&OBST XB=-28.365550,-27.365585,57.617604,56.617644,0.000000,439.773010 SURF_ID='INERT' /
&OBST XB=-27.365587,-26.365622,57.598129,56.598168,0.000000,439.721985 SURF_ID='INERT' /
&OBST XB=-26.365625,-25.365660,57.578653,56.578692,0.000000,439.696014 SURF_ID='INERT' /
&OBST XB=-25.365662,-24.365697,57.559178,56.559217,0.000000,439.634003 SURF_ID='INERT' /
&OBST XB=-24.365700,-23.365735,57.539702,56.539741,0.000000,439.601990 SURF_ID='INERT' /
&OBST XB=-23.365737,-22.365772,57.520226,56.520266,0.000000,439.614990 SURF_ID='INERT' /
&OBST XB=-22.365775,-21.365810,57.500751,56.500790,0.000000,439.584991 SURF_ID='INERT' /
&OBST XB=-21.365812,-20.365847,57.481275,56.481315,0.000000,439.598999 SURF_ID='INERT' /
&OBST XB=-20.365850,-19.365885,57.461800,56.461839,0.000000,439.532013 SURF_ID='INERT' /
&OBST XB=-19.365887,-18.365922,57.442324,56.442363,0.000000,439.566010 SURF_ID='INERT' /
&OBST XB=-18.365925,-17.365960,57.422848,56.422888,0.000000,439.566010 SURF_ID='INERT' /
&OBST XB=-17.365962,-16.365998,57.403373,56.403412,0.000000,439.669006 SURF_ID='INERT' /
&OBST XB=-16.366000,-15.366035,57.383897,56.383937,0.000000,439.697998 SURF_ID='INERT' /
&OBST XB=-15.366037,-14.366073,57.364422,56.364461,0.000000,439.726013 SURF_ID='INERT' /
&OBST XB=-14.366075,-13.366110,57.344946,56.344985,0.000000,439.727997 SURF_ID='INERT' /
&OBST XB=-13.366113,-12.366148,57.325470,56.325510,0.000000,439.791992 SURF_ID='INERT' /
&OBST XB=-12.366150,-11.366185,57.305995,56.306034,0.000000,439.915985 SURF_ID='INERT' /
&OBST XB=-11.366188,-10.366223,57.286519,56.286559,0.000000,440.670990 SURF_ID='INERT' /
&OBST XB=-10.366225,-9.366261,57.267044,56.267083,0.000000,441.076996 SURF_ID='INERT' /
&OBST XB=-9.366263,-8.366298,57.247568,56.247607,0.000000,442.148987 SURF_ID='INERT' /
&OBST XB=-8.366300,-7.366336,57.228092,56.228132,0.000000,441.238007 SURF_ID='INERT' /
&OBST XB=-7.366338,-6.366373,57.208617,56.208656,0.000000,441.277008 SURF_ID='INERT' /
&OBST XB=-6.366376,-5.366411,57.189141,56.189181,0.000000,441.311005 SURF_ID='INERT' /
&OBST XB=-5.366413,-4.366449,57.169666,56.169705,0.000000,441.391998 SURF_ID='INERT' /
&OBST XB=-4.366451,-3.366486,57.150190,56.150229,0.000000,441.377991 SURF_ID='INERT' /
&OBST XB=-3.366488,-2.366524,57.130714,56.130754,0.000000,441.799988 SURF_ID='INERT' /
&OBST XB=-2.366526,-1.366561,57.111239,56.111278,0.000000,441.285004 SURF_ID='INERT' /
&OBST XB=-1.366564,-0.366599,57.091763,56.091803,0.000000,441.136993 SURF_ID='INERT' /
&OBST XB=-0.366601,0.633363,57.072288,56.072327,0.000000,444.041992 SURF_ID='INERT' /
&OBST XB=0.633361,1.633326,57.052812,56.052851,0.000000,444.007996 SURF_ID='INERT' /
&OBST XB=1.633323,2.633288,57.033336,56.033376,0.000000,442.127014 SURF_ID='INERT' /
&OBST XB=2.633286,3.633250,57.013861,56.013900,0.000000,442.786987 SURF_ID='INERT' /
&OBST XB=3.633248,4.633213,56.994385,55.994424,0.000000,443.098999 SURF_ID='INERT' /
&OBST XB=4.633210,5.633175,56.974909,55.974949,0.000000,442.634003 SURF_ID='INERT' /
&OBST XB=5.633173,6.633137,56.955434,55.955473,0.000000,442.261993 SURF_ID='INERT' /
&OBST XB=6.633135,7.633100,56.935958,55.935998,0.000000,441.292999 SURF_ID='INERT' /
&OBST XB=7.633097,8.633062,56.916483,55.916522,0.000000,441.312012 SURF_ID='INERT' /
&OBST XB=8.633060,9.633024,56.897007,55.897046,0.000000,441.290985 SURF_ID='INERT' /
&OBST XB=9.633022,10.632987,56.877531,55.877571,0.000000,442.053009 SURF_ID='INERT' /
&OBST XB=10.632984,11.632949,56.858056,55.858095,0.000000,442.276001 SURF_ID='INERT' /
&OBST XB=11.632946,12.632911,56.838580,55.838619,0.000000,441.968994 SURF_ID='INERT' /
&OBST XB=12.632909,13.632873,56.819104,55.819144,0.000000,441.127991 SURF_ID='INERT' /
&OBST XB=13.632871,14.632836,56.799629,55.799668,0.000000,441.105988 SURF_ID='INERT' /
&OBST XB=14.632833,15.632798,56.780153,55.780192,0.000000,441.035004 SURF_ID='INERT' /
&OBST XB=15.632796,16.632760,56.760677,55.760717,0.000000,439.483002 SURF_ID='INERT' /
&OBST XB=16.632758,17.632723,56.741202,55.741241,0.000000,439.404999 SURF_ID='INERT' /
&OBST XB=17.632720,18.632685,56.721726,55.721765,0.000000,439.376007 SURF_ID='INERT' /
&OBST XB=18.632682,19.632647,56.702251,55.702290,0.000000,439.390991 SURF_ID='INERT' /
&OBST XB=19.632645,20.632609,56.682775,55.682814,0.000000,439.371002 SURF_ID='INERT' /
&OBST XB=20.632607,21.632572,56.663299,55.663339,0.000000,435.739014 SURF_ID='INERT' /
&OBST XB=21.632569,22.632534,56.643824,55.643863,0.000000,435.705994 SURF_ID='INERT' /
&OBST XB=22.632531,23.632496,56.624348,55.624387,0.000000,435.692993 SURF_ID='INERT' /
&OBST XB=23.632494,24.632458,56.604872,55.604912,0.000000,435.657013 SURF_ID='INERT' /
&OBST XB=24.632456,25.632420,56.585397,55.585436,0.000000,435.678009 SURF_ID='INERT' /
&OBST XB=25.632418,26.632383,56.565921,55.565960,0.000000,435.721008 SURF_ID='INERT' /
&OBST XB=26.632380,27.632345,56.546445,55.546485,0.000000,435.735992 SURF_ID='INERT' /
&OBST XB=27.632342,28.632307,56.526970,55.527009,0.000000,435.772003 SURF_ID='INERT' /
&OBST XB=28.632305,29.632269,56.507494,55.507533,0.000000,436.009003 SURF_ID='INERT' /
&OBST XB=29.632267,30.632231,56.488018,55.488058,0.000000,435.979004 SURF_ID='INERT' /
&OBST XB=30.632229,31.632194,56.468543,55.468582,0.000000,435.962006 SURF_ID='INERT' /
&OBST XB=31.632191,32.632156,56.449067,55.449106,0.000000,435.963989 SURF_ID='INERT' /
&OBST XB=32.632153,33.632118,56.429591,55.429631,0.000000,435.906006 SURF_ID='INERT' /
&OBST XB=33.632116,34.632080,56.410116,55.410155,0.000000,435.851990 SURF_ID='INERT' /
&OBST XB=34.632078,35.632042,56.390640,55.390679,0.000000,435.839996 SURF_ID='INERT' /
&OBST XB=35.632040,36.632005,56.371164,55.371204,0.000000,435.768005 SURF_ID='INERT' /
&OBST XB=36.632002,37.631967,56.351689,55.351728,0.000000,435.718994 SURF_ID='INERT' /
&OBST XB=37.631964,38.631929,56.332213,55.332252,0.000000,435.653992 SURF_ID='INERT' /
&OBST XB=38.631926,39.631891,56.312737,55.312776,0.000000,435.588989 SURF_ID='INERT' /
&OBST XB=39.631888,40.631853,56.293261,55.293301,0.000000,435.557007 SURF_ID='INERT' /
&OBST XB=40.631851,41.631815,56.273786,55.273825,0.000000,435.501007 SURF_ID='INERT' /
&OBST XB=41.631813,42.631777,56.254310,55.254349,0.000000,435.446014 SURF_ID='INERT' /
&OBST XB=42.631775,43.631739,56.234834,55.234874,0.000000,435.425995 SURF_ID='INERT' /
&OBST XB=43.631737,44.631702,56.215359,55.215398,0.000000,435.416992 SURF_ID='INERT' /
&OBST XB=44.631699,45.631664,56.195883,55.195922,0.000000,435.407013 SURF_ID='INERT' /
&OBST XB=45.631661,46.631626,56.176407,55.176447,0.000000,435.363007 SURF_ID='INERT' /
&OBST XB=46.631623,47.631588,56.156932,55.156971,0.000000,440.997009 SURF_ID='INERT' /
&OBST XB=47.631585,48.631550,56.137456,55.137495,0.000000,440.941010 SURF_ID='INERT' /
&OBST XB=48.631547,49.631512,56.117980,55.118020,0.000000,440.858002 SURF_ID='INERT' /
&OBST XB=49.631509,50.631474,56.098504,55.098544,0.000000,440.808014 SURF_ID='INERT' /
&OBST XB=50.631472,51.631436,56.079029,55.079068,0.000000,440.838013 SURF_ID='INERT' /
&OBST XB=51.631434,52.631398,56.059553,55.059592,0.000000,440.778992 SURF_ID='INERT' /
&OBST XB=52.631396,53.631360,56.040077,55.040117,0.000000,440.787994 SURF_ID='INERT' /
&OBST XB=53.631358,54.631322,56.020602,55.020641,0.000000,440.756012 SURF_ID='INERT' /
&OBST XB=54.631320,55.631284,56.001126,55.001165,0.000000,440.757996 SURF_ID='INERT' /
&OBST XB=55.631282,56.631246,55.981650,54.981690,0.000000,440.863007 SURF_ID='INERT' /
&OBST XB=56.631244,57.631209,55.962175,54.962214,0.000000,440.824005 SURF_ID='INERT' /
&OBST XB=57.631206,58.631171,55.942699,54.942738,0.000000,440.811005 SURF_ID='INERT' /
&OBST XB=58.631168,59.631133,55.923223,54.923262,0.000000,440.819000 SURF_ID='INERT' /
&OBST XB=59.631130,60.631095,55.903747,54.903787,0.000000,440.761993 SURF_ID='INERT' /
&OBST XB=60.631092,61.631057,55.884272,54.884311,0.000000,440.885010 SURF_ID='INERT' /
&OBST XB=61.631054,62.631019,55.864796,54.864835,0.000000,440.928009 SURF_ID='INERT' /
&OBST XB=62.631016,63.630981,55.845320,54.845360,0.000000,440.897003 SURF_ID='INERT' /
&OBST XB=63.630978,64.630943,55.825844,54.825884,0.000000,440.895996 SURF_ID='INERT' /
&OBST XB=-62.383754,-61.383789,57.279810,56.279849,0.000000,454.614014 SURF_ID='INERT' /
&OBST XB=-61.383791,-60.383826,57.260334,56.260374,0.000000,442.942993 SURF_ID='INERT' /
&OBST XB=-60.383828,-59.383864,57.240859,56.240898,0.000000,442.919006 SURF_ID='INERT' /
&OBST XB=-59.383866,-58.383901,57.221383,56.221423,0.000000,442.916992 SURF_ID='INERT' /
&OBST XB=-58.383903,-57.383938,57.201908,56.201947,0.000000,443.968994 SURF_ID='INERT' /
&OBST XB=-57.383940,-56.383976,57.182432,56.182472,0.000000,441.247986 SURF_ID='INERT' /
&OBST XB=-56.383978,-55.384013,57.162957,56.162996,0.000000,441.196991 SURF_ID='INERT' /
&OBST XB=-55.384015,-54.384050,57.143481,56.143521,0.000000,441.170990 SURF_ID='INERT' /
&OBST XB=-54.384052,-53.384088,57.124006,56.124045,0.000000,441.122009 SURF_ID='INERT' /
&OBST XB=-53.384090,-52.384125,57.104530,56.104570,0.000000,441.089996 SURF_ID='INERT' /
&OBST XB=-52.384127,-51.384162,57.085055,56.085094,0.000000,441.247986 SURF_ID='INERT' /
&OBST XB=-51.384164,-50.384200,57.065579,56.065619,0.000000,441.243988 SURF_ID='INERT' /
&OBST XB=-50.384202,-49.384237,57.046104,56.046143,0.000000,441.222992 SURF_ID='INERT' /
&OBST XB=-49.384239,-48.384274,57.026628,56.026668,0.000000,441.346008 SURF_ID='INERT' /
&OBST XB=-48.384277,-47.384312,57.007153,56.007192,0.000000,441.507996 SURF_ID='INERT' /
&OBST XB=-47.384314,-46.384349,56.987677,55.987716,0.000000,441.617004 SURF_ID='INERT' /
&OBST XB=-46.384351,-45.384387,56.968202,55.968241,0.000000,441.502991 SURF_ID='INERT' /
&OBST XB=-45.384389,-44.384424,56.948726,55.948765,0.000000,441.294006 SURF_ID='INERT' /
&OBST XB=-44.384426,-43.384461,56.929251,55.929290,0.000000,441.061005 SURF_ID='INERT' /
&OBST XB=-43.384464,-42.384499,56.909775,55.909814,0.000000,440.800995 SURF_ID='INERT' /
&OBST XB=-42.384501,-41.384536,56.890299,55.890339,0.000000,440.583008 SURF_ID='INERT' /
&OBST XB=-41.384538,-40.384574,56.870824,55.870863,0.000000,440.497986 SURF_ID='INERT' /
&OBST XB=-40.384576,-39.384611,56.851348,55.851388,0.000000,440.510986 SURF_ID='INERT' /
&OBST XB=-39.384613,-38.384648,56.831873,55.831912,0.000000,440.436005 SURF_ID='INERT' /
&OBST XB=-38.384651,-37.384686,56.812397,55.812437,0.000000,440.401001 SURF_ID='INERT' /
&OBST XB=-37.384688,-36.384723,56.792922,55.792961,0.000000,440.282990 SURF_ID='INERT' /
&OBST XB=-36.384725,-35.384761,56.773446,55.773486,0.000000,440.084991 SURF_ID='INERT' /
&OBST XB=-35.384763,-34.384798,56.753971,55.754010,0.000000,440.011993 SURF_ID='INERT' /
&OBST XB=-34.384800,-33.384836,56.734495,55.734534,0.000000,439.993988 SURF_ID='INERT' /
&OBST XB=-33.384838,-32.384873,56.715020,55.715059,0.000000,439.953003 SURF_ID='INERT' /
&OBST XB=-32.384875,-31.384911,56.695544,55.695583,0.000000,439.907013 SURF_ID='INERT' /
&OBST XB=-31.384913,-30.384948,56.676068,55.676108,0.000000,439.867004 SURF_ID='INERT' /
&OBST XB=-30.384950,-29.384986,56.656593,55.656632,0.000000,439.850006 SURF_ID='INERT' /
&OBST XB=-29.384988,-28.385023,56.637117,55.637157,0.000000,439.789001 SURF_ID='INERT' /
&OBST XB=-28.385025,-27.385060,56.617642,55.617681,0.000000,439.757996 SURF_ID='INERT' /
&OBST XB=-27.385063,-26.385098,56.598166,55.598205,0.000000,439.717987 SURF_ID='INERT' /
&OBST XB=-26.385100,-25.385135,56.578691,55.578730,0.000000,439.645996 SURF_ID='INERT' /
&OBST XB=-25.385138,-24.385173,56.559215,55.559254,0.000000,439.597992 SURF_ID='INERT' /
&OBST XB=-24.385175,-23.385210,56.539739,55.539779,0.000000,439.610992 SURF_ID='INERT' /
&OBST XB=-23.385213,-22.385248,56.520264,55.520303,0.000000,439.572998 SURF_ID='INERT' /
&OBST XB=-22.385250,-21.385285,56.500788,55.500828,0.000000,439.506012 SURF_ID='INERT' /
&OBST XB=-21.385288,-20.385323,56.481313,55.481352,0.000000,439.519989 SURF_ID='INERT' /
&OBST XB=-20.385325,-19.385361,56.461837,55.461876,0.000000,439.488007 SURF_ID='INERT' /
&OBST XB=-19.385363,-18.385398,56.442362,55.442401,0.000000,439.523987 SURF_ID='INERT' /
&OBST XB=-18.385400,-17.385436,56.422886,55.422925,0.000000,439.553009 SURF_ID='INERT' /
&OBST XB=-17.385438,-16.385473,56.403410,55.403450,0.000000,439.587006 SURF_ID='INERT' /
&OBST XB=-16.385475,-15.385511,56.383935,55.383974,0.000000,439.707001 SURF_ID='INERT' /
&OBST XB=-15.385513,-14.385548,56.364459,55.364499,0.000000,439.737000 SURF_ID='INERT' /
&OBST XB=-14.385551,-13.385586,56.344984,55.345023,0.000000,439.798004 SURF_ID='INERT' /
&OBST XB=-13.385588,-12.385623,56.325508,55.325547,0.000000,439.799988 SURF_ID='INERT' /
&OBST XB=-12.385626,-11.385661,56.306032,55.306072,0.000000,439.811005 SURF_ID='INERT' /
&OBST XB=-11.385663,-10.385699,56.286557,55.286596,0.000000,439.799988 SURF_ID='INERT' /
&OBST XB=-10.385701,-9.385736,56.267081,55.267121,0.000000,439.792999 SURF_ID='INERT' /
&OBST XB=-9.385738,-8.385774,56.247606,55.247645,0.000000,440.808014 SURF_ID='INERT' /
&OBST XB=-8.385776,-7.385811,56.228130,55.228169,0.000000,440.851013 SURF_ID='INERT' /
&OBST XB=-7.385814,-6.385849,56.208655,55.208694,0.000000,440.864990 SURF_ID='INERT' /